@<TRIPOS>MOLECULE
*****
 48 53 0 0 0
SMALL
GASTEIGER

@<TRIPOS>ATOM
      1 C         143.2621  141.1223  158.4478 C.2     1  UNL1        0.2459
      2 O         144.4079  141.5348  159.3235 O.2     1  UNL1       -0.2701
      3 N         142.2633  142.1430  157.9890 N.am    1  UNL1       -0.2975
      4 H         141.5113  141.8721  157.4142 H       1  UNL1        0.1499
      5 C         142.8215  136.8221  157.1967 C.ar    1  UNL1        0.0536
      6 C         142.6096  137.2118  158.6296 C.ar    1  UNL1        0.0048
      7 C         142.7565  138.6452  159.0466 C.ar    1  UNL1        0.0047
      8 C         143.1153  139.6889  158.0307 C.ar    1  UNL1        0.0534
      9 C         143.3271  139.2992  156.5978 C.ar    1  UNL1        0.0047
     10 C         143.1802  137.8658  156.1809 C.ar    1  UNL1        0.0048
     11 C         143.3960  131.5494  156.7471 C.ar    1  UNL1        0.0143
     12 C         142.7315  130.5043  155.9008 C.ar    1  UNL1        0.0091
     13 C         141.6571  130.8966  154.9306 C.ar    1  UNL1        0.0698
     14 C         141.2470  132.3342  154.8065 C.ar    1  UNL1        0.0326
     15 C         141.9114  133.3793  155.6528 C.ar    1  UNL1        0.1192
     16 N         141.7190  134.8637  155.7496 N.ar    1  UNL1       -0.2082
     17 C         142.6746  135.3888  156.7797 C.ar    1  UNL1        0.2296
     18 O         143.4576  134.2288  157.3196 O.2     1  UNL1       -0.4349
     19 C         142.9859  132.9869  156.6231 C.ar    1  UNL1        0.1607
     20 C         145.5838  132.1123  158.0304 C.3     1  UNL1        0.0048
     21 C         144.4705  131.1570  157.7174 C.3     1  UNL1        0.0254
     22 C         144.4316  129.8091  158.3748 C.3     1  UNL1        0.0048
     23 C         140.9926  129.8514  154.0842 C.1     1  UNL1        0.1005
     24 N         140.3282  128.8063  153.2379 N.1     1  UNL1       -0.1908
     25 C         142.4102  143.5763  158.4060 C.3     1  UNL1        0.1355
     26 C         141.8588  144.0343  159.7237 C.3     1  UNL1        0.2101
     27 C         141.8658  143.2506  161.0027 C.3     1  UNL1        0.1483
     28 N         141.2151  144.0883  162.0632 N.am    1  UNL1       -0.2059
     29 C         140.8059  145.3898  161.4396 C.2     1  UNL1        0.4098
     30 O         140.1193  146.5253  162.1392 O.2     1  UNL1       -0.2258
     31 O         141.2038  145.3564  159.9938 O.3     1  UNL1       -0.4345
     32 C         141.0096  143.6939  163.4957 C.ar    1  UNL1        0.1400
     33 C         139.6782  143.9141  164.1507 C.ar    1  UNL1        0.0348
     34 C         139.4727  143.5197  165.5832 C.ar    1  UNL1        0.0045
     35 C         140.5985  142.9049  166.3608 C.ar    1  UNL1        0.0222
     36 C         141.9298  142.6847  165.7058 C.ar    1  UNL1        0.1004
     37 N         142.1354  143.0791  164.2733 N.ar    1  UNL1       -0.2287
     38 C         140.3930  142.5105  167.7933 C.ar    1  UNL1        0.0358
     39 C         140.3993  143.5572  168.8677 C.ar    1  UNL1        0.0031
     40 C         140.1938  143.1627  170.3003 C.ar    1  UNL1        0.0002
     41 C         139.9819  141.7216  170.6584 C.ar    1  UNL1        0.0031
     42 C         139.9756  140.6749  169.5840 C.ar    1  UNL1        0.0372
     43 C         140.1812  141.0694  168.1514 C.ar    1  UNL1        0.1468
     44 O         140.1748  140.0227  167.0770 O.3     1  UNL1       -0.4045
     45 C         138.9051  139.7099  166.3420 C.3     1  UNL1        0.5753
     46 F         137.6354  139.3971  165.6072 F       1  UNL1       -0.1328
     47 F         139.5247  140.1951  165.0651 F       1  UNL1       -0.1328
     48 F         138.2856  139.2247  167.6190 F       1  UNL1       -0.1328
@<TRIPOS>BOND
     1    20    21    1
     2    21    22    1
     3    21    11    1
     4    11    12   ar
     5    12    13   ar
     6    13    23    1
     7    23    24    3
     8    13    14   ar
     9    14    15   ar
    10    15    16   ar
    11    16    17   ar
    12    17     5    1
    13     5     6   ar
    14     6     7   ar
    15     7     8   ar
    16     8     1    1
    17     1     2    2
    18     1     3   am
    19     3    25    1
    20    25    26    1
    21    26    27    1
    22    27    28    1
    23    28    32    1
    24    32    33   ar
    25    33    34   ar
    26    34    35   ar
    27    35    38    1
    28    38    39   ar
    29    39    40   ar
    30    40    41   ar
    31    41    42   ar
    32    42    43   ar
    33    43    44    1
    34    44    45    1
    35    45    46    1
    36    45    47    1
    37    45    48    1
    38    35    36   ar
    39    36    37   ar
    40    28    29   am
    41    29    30    2
    42    29    31    1
    43     8     9   ar
    44     9    10   ar
    45    17    18   ar
    46    18    19   ar
    47    19    11   ar
    48    19    15   ar
    49    10     5   ar
    50    31    26    1
    51    37    32   ar
    52    43    38   ar
    53     3     4    1
@<TRIPOS>MOLECULE
*****
 48 53 0 0 0
SMALL
GASTEIGER

@<TRIPOS>ATOM
      1 C         141.8231  140.9356  157.6757 C.2     1  UNL1        0.2459
      2 O         140.4713  141.5437  157.4456 O.2     1  UNL1       -0.2701
      3 N         142.9656  141.7962  158.1273 N.am    1  UNL1       -0.2975
      4 H         143.8528  141.3971  158.2783 H       1  UNL1        0.1499
      5 C         142.4507  136.5294  157.0110 C.ar    1  UNL1        0.0536
      6 C         142.0067  137.4034  155.8757 C.ar    1  UNL1        0.0048
      7 C         141.7975  138.8721  156.0973 C.ar    1  UNL1        0.0047
      8 C         142.0323  139.4669  157.4542 C.ar    1  UNL1        0.0534
      9 C         142.4762  138.5929  158.5895 C.ar    1  UNL1        0.0047
     10 C         142.6854  137.1242  158.3679 C.ar    1  UNL1        0.0048
     11 C         142.0516  131.5222  155.2494 C.ar    1  UNL1        0.0143
     12 C         142.7884  130.2535  155.5613 C.ar    1  UNL1        0.0091
     13 C         143.8998  130.2598  156.5686 C.ar    1  UNL1        0.0698
     14 C         144.2743  131.5350  157.2642 C.ar    1  UNL1        0.0326
     15 C         143.5375  132.8037  156.9523 C.ar    1  UNL1        0.1192
     16 N         143.6820  134.2025  157.4743 N.ar    1  UNL1       -0.2082
     17 C         142.6599  135.0607  156.7895 C.ar    1  UNL1        0.2296
     18 O         141.8837  134.1922  155.8443 O.2     1  UNL1       -0.4349
     19 C         142.4261  132.7974  155.9449 C.ar    1  UNL1        0.1607
     20 C         141.0493  132.3493  152.9997 C.3     1  UNL1        0.0048
     21 C         140.9402  131.5159  154.2420 C.3     1  UNL1        0.0254
     22 C         139.7197  130.6760  154.4771 C.3     1  UNL1        0.0048
     23 C         144.6367  128.9910  156.8805 C.1     1  UNL1        0.1005
     24 N         145.3735  127.7222  157.1923 N.1     1  UNL1       -0.1908
     25 C         142.7564  143.2650  158.3488 C.3     1  UNL1        0.1355
     26 C         142.1879  143.7541  159.6479 C.3     1  UNL1        0.2101
     27 C         142.1179  142.9757  160.9282 C.3     1  UNL1        0.1483
     28 N         141.4764  143.8479  161.9663 N.am    1  UNL1       -0.2059
     29 C         141.1499  145.1654  161.3276 C.2     1  UNL1        0.4098
     30 O         140.4982  146.3353  162.0031 O.2     1  UNL1       -0.2258
     31 O         141.5898  145.1072  159.8947 O.3     1  UNL1       -0.4345
     32 C         141.2083  143.4693  163.3928 C.ar    1  UNL1        0.1400
     33 C         139.8194  143.5765  163.9489 C.ar    1  UNL1        0.0348
     34 C         139.5514  143.1978  165.3754 C.ar    1  UNL1        0.0045
     35 C         140.6723  142.7119  166.2457 C.ar    1  UNL1        0.0222
     36 C         142.0612  142.6048  165.6895 C.ar    1  UNL1        0.1004
     37 N         142.3292  142.9834  164.2631 N.ar    1  UNL1       -0.2287
     38 C         140.4042  142.3333  167.6721 C.ar    1  UNL1        0.0358
     39 C         140.3605  143.3922  168.7337 C.ar    1  UNL1        0.0031
     40 C         140.0924  143.0135  170.1601 C.ar    1  UNL1        0.0002
     41 C         139.8681  141.5760  170.5251 C.ar    1  UNL1        0.0031
     42 C         139.9119  140.5171  169.4635 C.ar    1  UNL1        0.0372
     43 C         140.1799  140.8958  168.0371 C.ar    1  UNL1        0.1468
     44 O         140.2236  139.8369  166.9755 O.3     1  UNL1       -0.4045
     45 C         139.0333  139.6123  166.0907 C.3     1  UNL1        0.5753
     46 F         137.8431  139.3877  165.2060 F       1  UNL1       -0.1328
     47 F         139.8725  139.9152  164.8850 F       1  UNL1       -0.1328
     48 F         138.1942  139.3094  167.2965 F       1  UNL1       -0.1328
@<TRIPOS>BOND
     1    20    21    1
     2    21    22    1
     3    21    11    1
     4    11    12   ar
     5    12    13   ar
     6    13    23    1
     7    23    24    3
     8    13    14   ar
     9    14    15   ar
    10    15    16   ar
    11    16    17   ar
    12    17     5    1
    13     5     6   ar
    14     6     7   ar
    15     7     8   ar
    16     8     1    1
    17     1     2    2
    18     1     3   am
    19     3    25    1
    20    25    26    1
    21    26    27    1
    22    27    28    1
    23    28    32    1
    24    32    33   ar
    25    33    34   ar
    26    34    35   ar
    27    35    38    1
    28    38    39   ar
    29    39    40   ar
    30    40    41   ar
    31    41    42   ar
    32    42    43   ar
    33    43    44    1
    34    44    45    1
    35    45    46    1
    36    45    47    1
    37    45    48    1
    38    35    36   ar
    39    36    37   ar
    40    28    29   am
    41    29    30    2
    42    29    31    1
    43     8     9   ar
    44     9    10   ar
    45    17    18   ar
    46    18    19   ar
    47    19    11   ar
    48    19    15   ar
    49    10     5   ar
    50    31    26    1
    51    37    32   ar
    52    43    38   ar
    53     3     4    1
@<TRIPOS>MOLECULE
*****
 48 53 0 0 0
SMALL
GASTEIGER

@<TRIPOS>ATOM
      1 C         141.6315  140.3341  156.8508 C.2     1  UNL1        0.2459
      2 O         142.8590  141.1858  156.7181 O.2     1  UNL1       -0.2701
      3 N         140.3100  140.9676  157.1705 N.am    1  UNL1       -0.2975
      4 H         139.5043  140.4086  157.2576 H       1  UNL1        0.1499
      5 C         141.9134  135.8781  156.2897 C.ar    1  UNL1        0.0536
      6 C         142.9039  136.5880  157.1643 C.ar    1  UNL1        0.0048
      7 C         142.8098  138.0734  157.3513 C.ar    1  UNL1        0.0047
      8 C         141.7254  138.8488  156.6637 C.ar    1  UNL1        0.0534
      9 C         140.7350  138.1388  155.7891 C.ar    1  UNL1        0.0047
     10 C         140.8290  136.6535  155.6021 C.ar    1  UNL1        0.0048
     11 C         143.2962  130.7550  156.7094 C.ar    1  UNL1        0.0143
     12 C         142.8462  129.5016  156.0192 C.ar    1  UNL1        0.0091
     13 C         141.7835  129.5673  154.9627 C.ar    1  UNL1        0.0698
     14 C         141.1706  130.8866  154.5964 C.ar    1  UNL1        0.0326
     15 C         141.6206  132.1400  155.2866 C.ar    1  UNL1        0.1192
     16 N         141.2028  133.5729  155.1380 N.ar    1  UNL1       -0.2082
     17 C         142.0074  134.3927  156.1027 C.ar    1  UNL1        0.2296
     18 O         142.9224  133.4665  156.8475 O.2     1  UNL1       -0.4349
     19 C         142.6834  132.0742  156.3431 C.ar    1  UNL1        0.1607
     20 C         144.4490  129.4923  158.6656 C.3     1  UNL1        0.0048
     21 C         144.3589  130.6892  157.7659 C.3     1  UNL1        0.0254
     22 C         145.3317  131.8203  157.9228 C.3     1  UNL1        0.0048
     23 C         141.3334  128.3138  154.2725 C.1     1  UNL1        0.1005
     24 N         140.8835  127.0604  153.5822 N.1     1  UNL1       -0.1908
     25 C         140.2160  142.4530  157.3576 C.3     1  UNL1        0.1355
     26 C         140.0724  143.0278  158.7356 C.3     1  UNL1        0.2101
     27 C         140.2122  142.2734  160.0245 C.3     1  UNL1        0.1483
     28 N         139.9901  143.2372  161.1521 N.am    1  UNL1       -0.2059
     29 C         139.7130  144.5874  160.5602 C.2     1  UNL1        0.4098
     30 O         139.4341  145.8459  161.3271 O.2     1  UNL1       -0.2258
     31 O         139.7640  144.4578  159.0666 O.3     1  UNL1       -0.4345
     32 C         140.0368  142.9086  162.6150 C.ar    1  UNL1        0.1400
     33 C         141.3526  142.8743  163.3343 C.ar    1  UNL1        0.0348
     34 C         141.3993  142.5457  164.7972 C.ar    1  UNL1        0.0045
     35 C         140.1302  142.2515  165.5407 C.ar    1  UNL1        0.0222
     36 C         138.8144  142.2859  164.8213 C.ar    1  UNL1        0.1004
     37 N         138.7677  142.6144  163.3585 N.ar    1  UNL1       -0.2287
     38 C         140.1769  141.9230  167.0034 C.ar    1  UNL1        0.0358
     39 C         140.3965  143.0130  168.0103 C.ar    1  UNL1        0.0031
     40 C         140.4432  142.6844  169.4731 C.ar    1  UNL1        0.0002
     41 C         140.2704  141.2659  169.9291 C.ar    1  UNL1        0.0031
     42 C         140.0509  140.1759  168.9223 C.ar    1  UNL1        0.0372
     43 C         140.0041  140.5045  167.4594 C.ar    1  UNL1        0.1468
     44 O         139.7846  139.4145  166.4526 O.3     1  UNL1       -0.4045
     45 C         140.9089  138.9813  165.5590 C.3     1  UNL1        0.5753
     46 F         142.0331  138.5481  164.6654 F       1  UNL1       -0.1328
     47 F         141.8360  138.9556  166.7379 F       1  UNL1       -0.1328
     48 F         139.9818  139.0070  164.3801 F       1  UNL1       -0.1328
@<TRIPOS>BOND
     1    20    21    1
     2    21    22    1
     3    21    11    1
     4    11    12   ar
     5    12    13   ar
     6    13    23    1
     7    23    24    3
     8    13    14   ar
     9    14    15   ar
    10    15    16   ar
    11    16    17   ar
    12    17     5    1
    13     5     6   ar
    14     6     7   ar
    15     7     8   ar
    16     8     1    1
    17     1     2    2
    18     1     3   am
    19     3    25    1
    20    25    26    1
    21    26    27    1
    22    27    28    1
    23    28    32    1
    24    32    33   ar
    25    33    34   ar
    26    34    35   ar
    27    35    38    1
    28    38    39   ar
    29    39    40   ar
    30    40    41   ar
    31    41    42   ar
    32    42    43   ar
    33    43    44    1
    34    44    45    1
    35    45    46    1
    36    45    47    1
    37    45    48    1
    38    35    36   ar
    39    36    37   ar
    40    28    29   am
    41    29    30    2
    42    29    31    1
    43     8     9   ar
    44     9    10   ar
    45    17    18   ar
    46    18    19   ar
    47    19    11   ar
    48    19    15   ar
    49    10     5   ar
    50    31    26    1
    51    37    32   ar
    52    43    38   ar
    53     3     4    1
@<TRIPOS>MOLECULE
*****
 48 53 0 0 0
SMALL
GASTEIGER

@<TRIPOS>ATOM
      1 C         142.4165  143.8114  158.3649 C.2     1  UNL1        0.2459
      2 O         142.5893  145.2574  158.0055 O.2     1  UNL1       -0.2701
      3 N         142.5800  142.7528  157.3148 N.am    1  UNL1       -0.2975
      4 H         142.4666  141.8038  157.5507 H       1  UNL1        0.1499
      5 C         141.4076  142.6491  162.5935 C.ar    1  UNL1        0.0536
      6 C         141.3090  144.0835  162.1662 C.ar    1  UNL1        0.0048
      7 C         141.6453  144.4709  160.7566 C.ar    1  UNL1        0.0047
      8 C         142.0802  143.4239  159.7744 C.ar    1  UNL1        0.0534
      9 C         142.1788  141.9895  160.2018 C.ar    1  UNL1        0.0047
     10 C         141.8425  141.6021  161.6114 C.ar    1  UNL1        0.0048
     11 C         139.5364  140.1189  166.8867 C.ar    1  UNL1        0.0143
     12 C         139.6083  140.3889  168.3604 C.ar    1  UNL1        0.0091
     13 C         140.3345  141.5997  168.8665 C.ar    1  UNL1        0.0698
     14 C         140.9888  142.5409  167.8989 C.ar    1  UNL1        0.0326
     15 C         140.9170  142.2709  166.4252 C.ar    1  UNL1        0.1192
     16 N         141.4612  143.0136  165.2411 N.ar    1  UNL1       -0.2082
     17 C         141.0714  142.2617  164.0031 C.ar    1  UNL1        0.2296
     18 O         140.2862  141.0542  164.4221 O.2     1  UNL1       -0.4349
     19 C         140.1907  141.0599  165.9190 C.ar    1  UNL1        0.1607
     20 C         137.5528  138.4498  167.0581 C.3     1  UNL1        0.0048
     21 C         138.8102  138.9079  166.3805 C.3     1  UNL1        0.0254
     22 C         139.3414  138.1550  165.1968 C.3     1  UNL1        0.0048
     23 C         140.4063  141.8697  170.3404 C.1     1  UNL1        0.1005
     24 N         140.4782  142.1396  171.8141 N.1     1  UNL1       -0.1908
     25 C         142.9163  143.1403  155.9052 C.3     1  UNL1        0.1355
     26 C         144.1174  142.5469  155.2305 C.3     1  UNL1        0.2101
     27 C         145.5281  143.0438  155.3450 C.3     1  UNL1        0.1483
     28 N         146.4013  142.1565  154.5082 N.am    1  UNL1       -0.2059
     29 C         145.5302  141.1113  153.8765 C.2     1  UNL1        0.4098
     30 O         145.9900  140.0170  152.9595 O.2     1  UNL1       -0.2258
     31 O         144.1187  141.3527  154.3231 O.3     1  UNL1       -0.4345
     32 C         147.8850  142.2908  154.3336 C.ar    1  UNL1        0.1400
     33 C         148.4362  143.1209  153.2123 C.ar    1  UNL1        0.0348
     34 C         149.9199  143.2552  153.0377 C.ar    1  UNL1        0.0045
     35 C         150.8525  142.5595  153.9844 C.ar    1  UNL1        0.0222
     36 C         150.3013  141.7294  155.1056 C.ar    1  UNL1        0.1004
     37 N         148.8176  141.5951  155.2802 N.ar    1  UNL1       -0.2287
     38 C         152.3362  142.6938  153.8098 C.ar    1  UNL1        0.0358
     39 C         153.0999  143.6940  154.6260 C.ar    1  UNL1        0.0031
     40 C         154.5837  143.8284  154.4514 C.ar    1  UNL1        0.0002
     41 C         155.3037  142.9624  153.4606 C.ar    1  UNL1        0.0031
     42 C         154.5400  141.9622  152.6444 C.ar    1  UNL1        0.0372
     43 C         153.0562  141.8279  152.8190 C.ar    1  UNL1        0.1468
     44 O         152.2925  140.8277  152.0028 O.3     1  UNL1       -0.4045
     45 C         151.9357  139.4949  152.5915 C.3     1  UNL1        0.5753
     46 F         151.5788  138.1622  153.1802 F       1  UNL1       -0.1328
     47 F         153.3842  139.2354  152.8818 F       1  UNL1       -0.1328
     48 F         150.4872  139.7545  152.3011 F       1  UNL1       -0.1328
@<TRIPOS>BOND
     1    20    21    1
     2    21    22    1
     3    21    11    1
     4    11    12   ar
     5    12    13   ar
     6    13    23    1
     7    23    24    3
     8    13    14   ar
     9    14    15   ar
    10    15    16   ar
    11    16    17   ar
    12    17     5    1
    13     5     6   ar
    14     6     7   ar
    15     7     8   ar
    16     8     1    1
    17     1     2    2
    18     1     3   am
    19     3    25    1
    20    25    26    1
    21    26    27    1
    22    27    28    1
    23    28    32    1
    24    32    33   ar
    25    33    34   ar
    26    34    35   ar
    27    35    38    1
    28    38    39   ar
    29    39    40   ar
    30    40    41   ar
    31    41    42   ar
    32    42    43   ar
    33    43    44    1
    34    44    45    1
    35    45    46    1
    36    45    47    1
    37    45    48    1
    38    35    36   ar
    39    36    37   ar
    40    28    29   am
    41    29    30    2
    42    29    31    1
    43     8     9   ar
    44     9    10   ar
    45    17    18   ar
    46    18    19   ar
    47    19    11   ar
    48    19    15   ar
    49    10     5   ar
    50    31    26    1
    51    37    32   ar
    52    43    38   ar
    53     3     4    1
@<TRIPOS>MOLECULE
*****
 48 53 0 0 0
SMALL
GASTEIGER

@<TRIPOS>ATOM
      1 C         139.2586  141.3329  157.6739 C.2     1  UNL1        0.2459
      2 O         139.3118  140.0404  156.9147 O.2     1  UNL1       -0.2701
      3 N         138.8000  142.5864  156.9895 N.am    1  UNL1       -0.2975
      4 H         138.7650  143.4348  157.4878 H       1  UNL1        0.1499
      5 C         140.4749  141.4500  162.0049 C.ar    1  UNL1        0.0536
      6 C         141.2907  140.6692  161.0176 C.ar    1  UNL1        0.0048
      7 C         140.8852  140.6302  159.5740 C.ar    1  UNL1        0.0047
      8 C         139.6640  141.3720  159.1176 C.ar    1  UNL1        0.0534
      9 C         138.8481  142.1528  160.1048 C.ar    1  UNL1        0.0047
     10 C         139.2536  142.1918  161.5485 C.ar    1  UNL1        0.0048
     11 C         140.6351  140.7898  167.2844 C.ar    1  UNL1        0.0143
     12 C         141.5962  141.2202  168.3526 C.ar    1  UNL1        0.0091
     13 C         142.8161  142.0133  167.9886 C.ar    1  UNL1        0.0698
     14 C         143.0751  142.3761  166.5563 C.ar    1  UNL1        0.0326
     15 C         142.1140  141.9457  165.4881 C.ar    1  UNL1        0.1192
     16 N         142.1055  142.1537  164.0026 N.ar    1  UNL1       -0.2082
     17 C         140.8803  141.4891  163.4485 C.ar    1  UNL1        0.2296
     18 O         140.1315  140.8703  164.5916 O.2     1  UNL1       -0.4349
     19 C         140.8940  141.1525  165.8521 C.ar    1  UNL1        0.1607
     20 C         138.8988  140.0187  169.0566 C.3     1  UNL1        0.0048
     21 C         139.4151  139.9966  167.6484 C.3     1  UNL1        0.0254
     22 C         138.7113  139.1814  166.6042 C.3     1  UNL1        0.0048
     23 C         143.7772  142.4437  169.0569 C.1     1  UNL1        0.1005
     24 N         144.7383  142.8740  170.1251 N.1     1  UNL1       -0.1908
     25 C         138.3946  142.5474  155.5458 C.3     1  UNL1        0.1355
     26 C         137.0199  142.0833  155.1651 C.3     1  UNL1        0.2101
     27 C         136.0448  141.3838  156.0651 C.3     1  UNL1        0.1483
     28 N         134.8013  141.1054  155.2738 N.am    1  UNL1       -0.2059
     29 C         135.0078  141.6329  153.8848 C.2     1  UNL1        0.4098
     30 O         134.0171  141.5674  152.7604 O.2     1  UNL1       -0.2258
     31 O         136.3791  142.2372  153.8178 O.3     1  UNL1       -0.4345
     32 C         133.5677  140.4200  155.7822 C.ar    1  UNL1        0.1400
     33 C         132.2558  141.1470  155.7920 C.ar    1  UNL1        0.0348
     34 C         131.0222  140.4615  156.3004 C.ar    1  UNL1        0.0045
     35 C         131.1006  139.0490  156.7990 C.ar    1  UNL1        0.0222
     36 C         132.4126  138.3220  156.7892 C.ar    1  UNL1        0.1004
     37 N         133.6461  139.0074  156.2808 N.ar    1  UNL1       -0.2287
     38 C         129.8671  138.3636  157.3074 C.ar    1  UNL1        0.0358
     39 C         129.7798  137.9458  158.7454 C.ar    1  UNL1        0.0031
     40 C         128.5463  137.2604  159.2538 C.ar    1  UNL1        0.0002
     41 C         127.3999  136.9926  158.3242 C.ar    1  UNL1        0.0031
     42 C         127.4871  137.4104  156.8862 C.ar    1  UNL1        0.0372
     43 C         128.7207  138.0958  156.3778 C.ar    1  UNL1        0.1468
     44 O         128.8080  138.5136  154.9398 O.3     1  UNL1       -0.4045
     45 C         127.7336  139.3728  154.3418 C.3     1  UNL1        0.5753
     46 F         126.6592  140.2321  153.7439 F       1  UNL1       -0.1328
     47 F         127.5706  138.3892  153.2212 F       1  UNL1       -0.1328
     48 F         127.8966  140.3564  155.4625 F       1  UNL1       -0.1328
@<TRIPOS>BOND
     1    20    21    1
     2    21    22    1
     3    21    11    1
     4    11    12   ar
     5    12    13   ar
     6    13    23    1
     7    23    24    3
     8    13    14   ar
     9    14    15   ar
    10    15    16   ar
    11    16    17   ar
    12    17     5    1
    13     5     6   ar
    14     6     7   ar
    15     7     8   ar
    16     8     1    1
    17     1     2    2
    18     1     3   am
    19     3    25    1
    20    25    26    1
    21    26    27    1
    22    27    28    1
    23    28    32    1
    24    32    33   ar
    25    33    34   ar
    26    34    35   ar
    27    35    38    1
    28    38    39   ar
    29    39    40   ar
    30    40    41   ar
    31    41    42   ar
    32    42    43   ar
    33    43    44    1
    34    44    45    1
    35    45    46    1
    36    45    47    1
    37    45    48    1
    38    35    36   ar
    39    36    37   ar
    40    28    29   am
    41    29    30    2
    42    29    31    1
    43     8     9   ar
    44     9    10   ar
    45    17    18   ar
    46    18    19   ar
    47    19    11   ar
    48    19    15   ar
    49    10     5   ar
    50    31    26    1
    51    37    32   ar
    52    43    38   ar
    53     3     4    1
@<TRIPOS>MOLECULE
*****
 48 53 0 0 0
SMALL
GASTEIGER

@<TRIPOS>ATOM
      1 C         142.6653  139.2170  159.7204 C.2     1  UNL1        0.2459
      2 O         144.1026  139.5461  159.4449 O.2     1  UNL1       -0.2701
      3 N         141.7807  138.7325  158.6101 N.am    1  UNL1       -0.2975
      4 H         140.8374  138.5165  158.7909 H       1  UNL1        0.1499
      5 C         141.0073  139.6830  163.8778 C.ar    1  UNL1        0.0536
      6 C         140.5637  138.5371  163.0175 C.ar    1  UNL1        0.0048
      7 C         141.1164  138.3818  161.6317 C.ar    1  UNL1        0.0047
      8 C         142.1127  139.3723  161.1062 C.ar    1  UNL1        0.0534
      9 C         142.5564  140.5182  161.9665 C.ar    1  UNL1        0.0047
     10 C         142.0037  140.6735  163.3523 C.ar    1  UNL1        0.0048
     11 C         140.1607  141.2567  168.8919 C.ar    1  UNL1        0.0143
     12 C         139.1646  140.8688  169.9442 C.ar    1  UNL1        0.0091
     13 C         138.1297  139.8242  169.6486 C.ar    1  UNL1        0.0698
     14 C         138.0908  139.1672  168.3006 C.ar    1  UNL1        0.0326
     15 C         139.0868  139.5551  167.2483 C.ar    1  UNL1        0.1192
     16 N         139.2926  139.0844  165.8390 N.ar    1  UNL1       -0.2082
     17 C         140.4547  139.8383  165.2636 C.ar    1  UNL1        0.2296
     18 O         140.9672  140.7748  166.3173 O.2     1  UNL1       -0.4349
     19 C         140.1218  140.5998  167.5439 C.ar    1  UNL1        0.1607
     20 C         140.7763  143.6532  169.6840 C.3     1  UNL1        0.0048
     21 C         141.1957  142.3014  169.1875 C.3     1  UNL1        0.0254
     22 C         142.6502  141.9942  168.9866 C.3     1  UNL1        0.0048
     23 C         137.1336  139.4364  170.7010 C.1     1  UNL1        0.1005
     24 N         136.1375  139.0486  171.7533 N.1     1  UNL1       -0.1908
     25 C         142.3334  138.5771  157.2243 C.3     1  UNL1        0.1355
     26 C         142.2008  137.2667  156.5065 C.3     1  UNL1        0.2101
     27 C         142.9110  135.9931  156.8581 C.3     1  UNL1        0.1483
     28 N         142.4839  134.9391  155.8801 N.am    1  UNL1       -0.2059
     29 C         141.5098  135.5613  154.9239 C.2     1  UNL1        0.4098
     30 O         140.8300  134.8668  153.7813 O.2     1  UNL1       -0.2258
     31 O         141.3349  136.9999  155.3112 O.3     1  UNL1       -0.4345
     32 C         142.9492  133.5132  155.8613 C.ar    1  UNL1        0.1400
     33 C         142.0349  132.4324  155.3656 C.ar    1  UNL1        0.0348
     34 C         142.5003  131.0065  155.3469 C.ar    1  UNL1        0.0045
     35 C         143.8799  130.6614  155.8238 C.ar    1  UNL1        0.0222
     36 C         144.7942  131.7424  156.3195 C.ar    1  UNL1        0.1004
     37 N         144.3289  133.1682  156.3383 N.ar    1  UNL1       -0.2287
     38 C         144.3452  129.2356  155.8051 C.ar    1  UNL1        0.0358
     39 C         145.1040  128.7098  154.6229 C.ar    1  UNL1        0.0031
     40 C         145.5693  127.2839  154.6042 C.ar    1  UNL1        0.0002
     41 C         145.2758  126.3838  155.7676 C.ar    1  UNL1        0.0031
     42 C         144.5170  126.9097  156.9499 C.ar    1  UNL1        0.0372
     43 C         144.0517  128.3356  156.9686 C.ar    1  UNL1        0.1468
     44 O         143.2929  128.8614  158.1508 O.3     1  UNL1       -0.4045
     45 C         143.8022  128.6132  159.5398 C.3     1  UNL1        0.5753
     46 F         144.3114  128.3650  160.9287 F       1  UNL1       -0.1328
     47 F         145.1412  129.1634  159.1471 F       1  UNL1       -0.1328
     48 F         142.4631  128.0630  159.9324 F       1  UNL1       -0.1328
@<TRIPOS>BOND
     1    20    21    1
     2    21    22    1
     3    21    11    1
     4    11    12   ar
     5    12    13   ar
     6    13    23    1
     7    23    24    3
     8    13    14   ar
     9    14    15   ar
    10    15    16   ar
    11    16    17   ar
    12    17     5    1
    13     5     6   ar
    14     6     7   ar
    15     7     8   ar
    16     8     1    1
    17     1     2    2
    18     1     3   am
    19     3    25    1
    20    25    26    1
    21    26    27    1
    22    27    28    1
    23    28    32    1
    24    32    33   ar
    25    33    34   ar
    26    34    35   ar
    27    35    38    1
    28    38    39   ar
    29    39    40   ar
    30    40    41   ar
    31    41    42   ar
    32    42    43   ar
    33    43    44    1
    34    44    45    1
    35    45    46    1
    36    45    47    1
    37    45    48    1
    38    35    36   ar
    39    36    37   ar
    40    28    29   am
    41    29    30    2
    42    29    31    1
    43     8     9   ar
    44     9    10   ar
    45    17    18   ar
    46    18    19   ar
    47    19    11   ar
    48    19    15   ar
    49    10     5   ar
    50    31    26    1
    51    37    32   ar
    52    43    38   ar
    53     3     4    1
@<TRIPOS>MOLECULE
*****
 48 53 0 0 0
SMALL
GASTEIGER

@<TRIPOS>ATOM
      1 C         139.5016  142.7657  157.8601 C.2     1  UNL1        0.2459
      2 O         140.7855  142.7703  157.0845 O.2     1  UNL1       -0.2701
      3 N         138.2047  143.0585  157.1656 N.am    1  UNL1       -0.2975
      4 H         137.3620  143.0555  157.6746 H       1  UNL1        0.1499
      5 C         139.5405  141.8732  162.2705 C.ar    1  UNL1        0.0536
      6 C         138.2374  142.0966  161.5621 C.ar    1  UNL1        0.0048
      7 C         138.2245  142.3941  160.0919 C.ar    1  UNL1        0.0047
      8 C         139.5146  142.4682  159.3302 C.ar    1  UNL1        0.0534
      9 C         140.8177  142.2447  160.0387 C.ar    1  UNL1        0.0047
     10 C         140.8306  141.9472  161.5089 C.ar    1  UNL1        0.0048
     11 C         138.8628  139.5702  167.0215 C.ar    1  UNL1        0.0143
     12 C         139.2351  139.9575  168.4220 C.ar    1  UNL1        0.0091
     13 C         139.9570  141.2473  168.6766 C.ar    1  UNL1        0.0698
     14 C         140.3068  142.1500  167.5308 C.ar    1  UNL1        0.0326
     15 C         139.9345  141.7627  166.1303 C.ar    1  UNL1        0.1192
     16 N         140.1453  142.4443  164.8108 N.ar    1  UNL1       -0.2082
     17 C         139.5535  141.5756  163.7407 C.ar    1  UNL1        0.2296
     18 O         138.9771  140.3572  164.3988 O.2     1  UNL1       -0.4349
     19 C         139.2126  140.4728  165.8756 C.ar    1  UNL1        0.1607
     20 C         137.0046  137.8686  167.6554 C.3     1  UNL1        0.0048
     21 C         138.1408  138.2803  166.7668 C.3     1  UNL1        0.0254
     22 C         138.5551  137.4019  165.6235 C.3     1  UNL1        0.0048
     23 C         140.3293  141.6347  170.0772 C.1     1  UNL1        0.1005
     24 N         140.7016  142.0219  171.4777 N.1     1  UNL1       -0.1908
     25 C         138.1917  143.3560  155.6954 C.3     1  UNL1        0.1355
     26 C         138.9209  144.5554  155.1664 C.3     1  UNL1        0.2101
     27 C         138.4772  145.9828  155.2913 C.3     1  UNL1        0.1483
     28 N         139.5039  146.8475  154.6218 N.am    1  UNL1       -0.2059
     29 C         140.5820  145.9545  154.0831 C.2     1  UNL1        0.4098
     30 O         141.8056  146.3999  153.3385 O.2     1  UNL1       -0.2258
     31 O         140.2216  144.5378  154.4198 O.3     1  UNL1       -0.4345
     32 C         139.4601  148.3427  154.5104 C.ar    1  UNL1        0.1400
     33 C         139.0196  149.1695  155.6819 C.ar    1  UNL1        0.0348
     34 C         138.9758  150.6647  155.5706 C.ar    1  UNL1        0.0045
     35 C         139.3725  151.3332  154.2877 C.ar    1  UNL1        0.0222
     36 C         139.8130  150.5064  153.1162 C.ar    1  UNL1        0.1004
     37 N         139.8568  149.0112  153.2276 N.ar    1  UNL1       -0.2287
     38 C         139.3288  152.8284  154.1764 C.ar    1  UNL1        0.0358
     39 C         138.1090  153.5783  154.6232 C.ar    1  UNL1        0.0031
     40 C         138.0652  155.0736  154.5118 C.ar    1  UNL1        0.0002
     41 C         139.2412  155.8188  153.9537 C.ar    1  UNL1        0.0031
     42 C         140.4610  155.0689  153.5069 C.ar    1  UNL1        0.0372
     43 C         140.5048  153.5736  153.6183 C.ar    1  UNL1        0.1468
     44 O         141.7246  152.8237  153.1715 O.3     1  UNL1       -0.4045
     45 C         142.9767  152.8686  153.9964 C.3     1  UNL1        0.5753
     46 F         144.2287  152.9135  154.8213 F       1  UNL1       -0.1328
     47 F         142.4738  151.7216  154.8220 F       1  UNL1       -0.1328
     48 F         143.4795  154.0155  153.1708 F       1  UNL1       -0.1328
@<TRIPOS>BOND
     1    20    21    1
     2    21    22    1
     3    21    11    1
     4    11    12   ar
     5    12    13   ar
     6    13    23    1
     7    23    24    3
     8    13    14   ar
     9    14    15   ar
    10    15    16   ar
    11    16    17   ar
    12    17     5    1
    13     5     6   ar
    14     6     7   ar
    15     7     8   ar
    16     8     1    1
    17     1     2    2
    18     1     3   am
    19     3    25    1
    20    25    26    1
    21    26    27    1
    22    27    28    1
    23    28    32    1
    24    32    33   ar
    25    33    34   ar
    26    34    35   ar
    27    35    38    1
    28    38    39   ar
    29    39    40   ar
    30    40    41   ar
    31    41    42   ar
    32    42    43   ar
    33    43    44    1
    34    44    45    1
    35    45    46    1
    36    45    47    1
    37    45    48    1
    38    35    36   ar
    39    36    37   ar
    40    28    29   am
    41    29    30    2
    42    29    31    1
    43     8     9   ar
    44     9    10   ar
    45    17    18   ar
    46    18    19   ar
    47    19    11   ar
    48    19    15   ar
    49    10     5   ar
    50    31    26    1
    51    37    32   ar
    52    43    38   ar
    53     3     4    1
@<TRIPOS>MOLECULE
*****
 48 53 0 0 0
SMALL
GASTEIGER

@<TRIPOS>ATOM
      1 C         142.4853  139.2513  158.0219 C.2     1  UNL1        0.2459
      2 O         143.8487  139.2858  157.3974 O.2     1  UNL1       -0.2701
      3 N         141.2963  138.8405  157.2049 N.am    1  UNL1       -0.2975
      4 H         140.4015  138.8179  157.6148 H       1  UNL1        0.1499
      5 C         141.9622  140.3803  162.3465 C.ar    1  UNL1        0.0536
      6 C         140.8051  140.4876  161.3981 C.ar    1  UNL1        0.0048
      7 C         140.9795  140.1113  159.9565 C.ar    1  UNL1        0.0047
      8 C         142.3110  139.6276  159.4634 C.ar    1  UNL1        0.0534
      9 C         143.4682  139.5203  160.4118 C.ar    1  UNL1        0.0047
     10 C         143.2937  139.8967  161.8533 C.ar    1  UNL1        0.0048
     11 C         142.0691  140.4013  167.6684 C.ar    1  UNL1        0.0143
     12 C         141.5679  141.3574  168.7099 C.ar    1  UNL1        0.0091
     13 C         140.8676  142.6176  168.2962 C.ar    1  UNL1        0.0698
     14 C         140.6683  142.9219  166.8409 C.ar    1  UNL1        0.0326
     15 C         141.1695  141.9658  165.7994 C.ar    1  UNL1        0.1192
     16 N         141.1188  141.9974  164.3006 N.ar    1  UNL1       -0.2082
     17 C         141.7879  140.7567  163.7880 C.ar    1  UNL1        0.2296
     18 O         142.2521  139.9582  164.9700 O.2     1  UNL1       -0.4349
     19 C         141.8699  140.7056  166.2131 C.ar    1  UNL1        0.1607
     20 C         142.7496  138.7088  169.5183 C.3     1  UNL1        0.0048
     21 C         142.7695  139.1411  168.0821 C.3     1  UNL1        0.0254
     22 C         143.4898  138.3130  167.0595 C.3     1  UNL1        0.0048
     23 C         140.3664  143.5737  169.3378 C.1     1  UNL1        0.1005
     24 N         139.8652  144.5297  170.3794 N.1     1  UNL1       -0.1908
     25 C         141.4707  138.4642  155.7634 C.3     1  UNL1        0.1355
     26 C         141.7904  137.0466  155.3917 C.3     1  UNL1        0.2101
     27 C         142.2105  135.9606  156.3372 C.3     1  UNL1        0.1483
     28 N         142.4260  134.7089  155.5392 N.am    1  UNL1       -0.2059
     29 C         142.1391  135.0214  154.1004 C.2     1  UNL1        0.4098
     30 O         142.2292  134.0582  152.9540 O.2     1  UNL1       -0.2258
     31 O         141.7463  136.4662  154.0093 O.3     1  UNL1       -0.4345
     32 C         142.8534  133.3784  156.0842 C.ar    1  UNL1        0.1400
     33 C         144.1006  133.2720  156.9107 C.ar    1  UNL1        0.0348
     34 C         144.5279  131.9414  157.4557 C.ar    1  UNL1        0.0045
     35 C         143.7081  130.7172  157.1742 C.ar    1  UNL1        0.0222
     36 C         142.4608  130.8237  156.3477 C.ar    1  UNL1        0.1004
     37 N         142.0335  132.1542  155.8027 N.ar    1  UNL1       -0.2287
     38 C         144.1354  129.3868  157.7192 C.ar    1  UNL1        0.0358
     39 C         143.7758  129.0009  159.1233 C.ar    1  UNL1        0.0031
     40 C         144.2032  127.6703  159.6683 C.ar    1  UNL1        0.0002
     41 C         144.9901  126.7256  158.8092 C.ar    1  UNL1        0.0031
     42 C         145.3497  127.1115  157.4050 C.ar    1  UNL1        0.0372
     43 C         144.9224  128.4421  156.8600 C.ar    1  UNL1        0.1468
     44 O         145.2820  128.8279  155.4558 O.3     1  UNL1       -0.4045
     45 C         144.9155  127.9276  154.3133 C.3     1  UNL1        0.5753
     46 F         144.5490  127.0273  153.1708 F       1  UNL1       -0.1328
     47 F         143.4700  128.2838  154.4963 F       1  UNL1       -0.1328
     48 F         146.3610  127.5714  154.1303 F       1  UNL1       -0.1328
@<TRIPOS>BOND
     1    20    21    1
     2    21    22    1
     3    21    11    1
     4    11    12   ar
     5    12    13   ar
     6    13    23    1
     7    23    24    3
     8    13    14   ar
     9    14    15   ar
    10    15    16   ar
    11    16    17   ar
    12    17     5    1
    13     5     6   ar
    14     6     7   ar
    15     7     8   ar
    16     8     1    1
    17     1     2    2
    18     1     3   am
    19     3    25    1
    20    25    26    1
    21    26    27    1
    22    27    28    1
    23    28    32    1
    24    32    33   ar
    25    33    34   ar
    26    34    35   ar
    27    35    38    1
    28    38    39   ar
    29    39    40   ar
    30    40    41   ar
    31    41    42   ar
    32    42    43   ar
    33    43    44    1
    34    44    45    1
    35    45    46    1
    36    45    47    1
    37    45    48    1
    38    35    36   ar
    39    36    37   ar
    40    28    29   am
    41    29    30    2
    42    29    31    1
    43     8     9   ar
    44     9    10   ar
    45    17    18   ar
    46    18    19   ar
    47    19    11   ar
    48    19    15   ar
    49    10     5   ar
    50    31    26    1
    51    37    32   ar
    52    43    38   ar
    53     3     4    1
@<TRIPOS>MOLECULE
*****
 48 53 0 0 0
SMALL
GASTEIGER

@<TRIPOS>ATOM
      1 C         139.1552  139.4773  155.9973 C.2     1  UNL1        0.2459
      2 O         140.1333  140.0034  154.9892 O.2     1  UNL1       -0.2701
      3 N         139.6387  138.6467  157.1490 N.am    1  UNL1       -0.2975
      4 H         138.9967  138.3014  157.8106 H       1  UNL1        0.1499
      5 C         134.7700  140.3908  155.5667 C.ar    1  UNL1        0.0536
      6 C         135.5035  139.6954  154.4584 C.ar    1  UNL1        0.0048
      7 C         136.9653  139.3909  154.6020 C.ar    1  UNL1        0.0047
      8 C         137.6935  139.7818  155.8538 C.ar    1  UNL1        0.0534
      9 C         136.9599  140.4772  156.9620 C.ar    1  UNL1        0.0047
     10 C         135.4981  140.7817  156.8184 C.ar    1  UNL1        0.0048
     11 C         129.4729  140.3687  156.0910 C.ar    1  UNL1        0.0143
     12 C         128.3671  141.1619  155.4603 C.ar    1  UNL1        0.0091
     13 C         128.6871  142.2208  154.4473 C.ar    1  UNL1        0.0698
     14 C         130.1131  142.4866  154.0651 C.ar    1  UNL1        0.0326
     15 C         131.2189  141.6934  154.6958 C.ar    1  UNL1        0.1192
     16 N         132.7080  141.7310  154.5193 N.ar    1  UNL1       -0.2082
     17 C         133.3082  140.6953  155.4232 C.ar    1  UNL1        0.2296
     18 O         132.1901  140.0176  156.1583 O.2     1  UNL1       -0.4349
     19 C         130.8988  140.6344  155.7088 C.ar    1  UNL1        0.1607
     20 C         128.8281  139.6965  158.5164 C.3     1  UNL1        0.0048
     21 C         129.1528  139.3097  157.1040 C.3     1  UNL1        0.0254
     22 C         129.1575  137.8638  156.7046 C.3     1  UNL1        0.0048
     23 C         127.5812  143.0140  153.8165 C.1     1  UNL1        0.1005
     24 N         126.4753  143.8072  153.1858 N.1     1  UNL1       -0.1908
     25 C         141.1005  138.3421  157.2925 C.3     1  UNL1        0.1355
     26 C         141.7221  138.2742  158.6559 C.3     1  UNL1        0.2101
     27 C         141.0996  138.7539  159.9336 C.3     1  UNL1        0.1483
     28 N         142.0681  138.4909  161.0484 N.am    1  UNL1       -0.2059
     29 C         143.2892  137.8486  160.4597 C.2     1  UNL1        0.4098
     30 O         144.5098  137.4162  161.2167 O.2     1  UNL1       -0.2258
     31 O         143.0753  137.7148  158.9810 O.3     1  UNL1       -0.4345
     32 C         141.8533  138.8134  162.4974 C.ar    1  UNL1        0.1400
     33 C         142.0152  137.7433  163.5360 C.ar    1  UNL1        0.0348
     34 C         141.8003  138.0658  164.9851 C.ar    1  UNL1        0.0045
     35 C         141.4236  139.4585  165.3956 C.ar    1  UNL1        0.0222
     36 C         141.2617  140.5286  164.3570 C.ar    1  UNL1        0.1004
     37 N         141.4765  140.2061  162.9080 N.ar    1  UNL1       -0.2287
     38 C         141.2088  139.7810  166.8446 C.ar    1  UNL1        0.0358
     39 C         142.3841  140.0674  167.7315 C.ar    1  UNL1        0.0031
     40 C         142.1693  140.3899  169.1806 C.ar    1  UNL1        0.0002
     41 C         140.7791  140.4260  169.7428 C.ar    1  UNL1        0.0031
     42 C         139.6038  140.1397  168.8560 C.ar    1  UNL1        0.0372
     43 C         139.8186  139.8171  167.4069 C.ar    1  UNL1        0.1468
     44 O         138.6433  139.5308  166.5200 O.3     1  UNL1       -0.4045
     45 C         137.9858  138.1830  166.5579 C.3     1  UNL1        0.5753
     46 F         137.3284  136.8353  166.5959 F       1  UNL1       -0.1328
     47 F         138.7681  137.7673  165.3476 F       1  UNL1       -0.1328
     48 F         137.2035  138.5987  167.7683 F       1  UNL1       -0.1328
@<TRIPOS>BOND
     1    20    21    1
     2    21    22    1
     3    21    11    1
     4    11    12   ar
     5    12    13   ar
     6    13    23    1
     7    23    24    3
     8    13    14   ar
     9    14    15   ar
    10    15    16   ar
    11    16    17   ar
    12    17     5    1
    13     5     6   ar
    14     6     7   ar
    15     7     8   ar
    16     8     1    1
    17     1     2    2
    18     1     3   am
    19     3    25    1
    20    25    26    1
    21    26    27    1
    22    27    28    1
    23    28    32    1
    24    32    33   ar
    25    33    34   ar
    26    34    35   ar
    27    35    38    1
    28    38    39   ar
    29    39    40   ar
    30    40    41   ar
    31    41    42   ar
    32    42    43   ar
    33    43    44    1
    34    44    45    1
    35    45    46    1
    36    45    47    1
    37    45    48    1
    38    35    36   ar
    39    36    37   ar
    40    28    29   am
    41    29    30    2
    42    29    31    1
    43     8     9   ar
    44     9    10   ar
    45    17    18   ar
    46    18    19   ar
    47    19    11   ar
    48    19    15   ar
    49    10     5   ar
    50    31    26    1
    51    37    32   ar
    52    43    38   ar
    53     3     4    1
