@<TRIPOS>MOLECULE
*****
 34 38 0 0 0
SMALL
GASTEIGER

@<TRIPOS>ATOM
      1 N         139.2903  138.5022  162.4724 N.3     1  UNL1       -0.2702
      2 C         138.9015  139.1858  163.7497 C.3     1  UNL1        0.0747
      3 C         139.9028  139.3320  164.8569 C.3     1  UNL1        0.0463
      4 C         141.2929  138.7946  164.6869 C.3     1  UNL1        0.1136
      5 C         141.6817  138.1110  163.4096 C.3     1  UNL1        0.0463
      6 C         140.6804  137.9647  162.3024 C.3     1  UNL1        0.0747
      7 C         140.9041  139.4783  165.9642 C.3     1  UNL1        0.1194
      8 N         141.9054  139.6245  167.0715 N.pl3   1  UNL1       -0.2869
      9 C         143.2954  139.0871  166.9014 C.3     1  UNL1        0.1243
     10 C         143.6842  138.4035  165.6242 C.3     1  UNL1        0.1634
     11 O         142.6829  138.2572  164.5169 O.3     1  UNL1       -0.3549
     12 C         141.5166  140.3082  168.3488 C.ar    1  UNL1        0.1518
     13 C         140.2785  139.8822  169.0807 C.ar    1  UNL1        0.0410
     14 C         139.8897  140.5658  170.3580 C.ar    1  UNL1        0.0651
     15 C         140.7390  141.6754  170.9034 C.ar    1  UNL1        0.2766
     16 O         140.3503  142.3591  172.1807 O.2     1  UNL1       -0.2655
     17 N         141.9771  142.1013  170.1715 N.ar    1  UNL1       -0.2134
     18 C         142.8265  143.2110  170.7169 C.3     1  UNL1        0.1571
     19 N         142.3659  141.4177  168.8942 N.ar    1  UNL1       -0.1517
     20 C         138.2890  138.3559  161.3651 C.3     1  UNL1        0.1063
     21 C         137.6881  139.5754  160.7314 C.3     1  UNL1        0.1483
     22 O         136.2708  139.5449  160.2413 O.3     1  UNL1       -0.3786
     23 H         136.0411  140.4076  159.8620 H       1  UNL1        0.2108
     24 C         137.3500  141.8213  162.6915 C.3     1  UNL1        0.0306
     25 C         138.3355  141.9485  161.5678 C.ar    1  UNL1       -0.0238
     26 C         138.5046  140.8256  160.5878 C.ar    1  UNL1        0.0015
     27 C         139.4900  140.9528  159.4641 C.ar    1  UNL1       -0.0020
     28 C         140.3065  142.2029  159.3204 C.ar    1  UNL1        0.0060
     29 C         140.1374  143.3258  160.3005 C.ar    1  UNL1        0.0748
     30 C         139.1519  143.1986  161.4241 C.ar    1  UNL1        0.0233
     31 C         139.2029  144.4623  162.2306 C.3     1  UNL1        0.2352
     32 O         140.2199  145.3705  161.6054 O.3     1  UNL1       -0.4404
     33 C         140.7974  144.6681  160.4125 C.2     1  UNL1        0.3413
     34 O         141.8502  145.2124  159.4930 O.2     1  UNL1       -0.2449
@<TRIPOS>BOND
     1    24    25    1
     2    25    26   ar
     3    26    21    1
     4    21    22    1
     5    21    20    1
     6    20     1    1
     7     1     2    1
     8     2     3    1
     9     3     4    1
    10     4     5    1
    11     5     6    1
    12     4     7    1
    13     7     8    1
    14     8    12    1
    15    12    13   ar
    16    13    14   ar
    17    14    15   ar
    18    15    16    2
    19    15    17   ar
    20    17    18    1
    21    17    19   ar
    22     8     9    1
    23     9    10    1
    24    10    11    1
    25    26    27   ar
    26    27    28   ar
    27    28    29   ar
    28    29    30   ar
    29    30    31    1
    30    31    32    1
    31    32    33    1
    32    33    34    2
    33    30    25   ar
    34     6     1    1
    35    19    12   ar
    36    33    29    1
    37    11     4    1
    38    22    23    1
@<TRIPOS>MOLECULE
*****
 34 38 0 0 0
SMALL
GASTEIGER

@<TRIPOS>ATOM
      1 N         142.1234  138.0515  162.2904 N.3     1  UNL1       -0.2702
      2 C         142.7793  138.9592  163.2883 C.3     1  UNL1        0.0747
      3 C         142.0424  139.3661  164.5298 C.3     1  UNL1        0.0463
      4 C         140.6496  138.8652  164.7734 C.3     1  UNL1        0.1136
      5 C         139.9938  137.9575  163.7755 C.3     1  UNL1        0.0463
      6 C         140.7307  137.5506  162.5340 C.3     1  UNL1        0.0747
      7 C         141.3054  139.7730  165.7714 C.3     1  UNL1        0.1194
      8 N         140.5685  140.1799  167.0129 N.pl3   1  UNL1       -0.2869
      9 C         139.1758  139.6790  167.2565 C.3     1  UNL1        0.1243
     10 C         138.5199  138.7712  166.2586 C.3     1  UNL1        0.1634
     11 O         139.2568  138.3643  165.0170 O.3     1  UNL1       -0.3549
     12 C         141.2244  141.0877  168.0108 C.ar    1  UNL1        0.1518
     13 C         142.6289  140.8163  168.4620 C.ar    1  UNL1        0.0410
     14 C         143.2848  141.7240  169.4599 C.ar    1  UNL1        0.0651
     15 C         142.5360  142.9031  170.0067 C.ar    1  UNL1        0.2766
     16 O         143.1919  143.8109  171.0046 O.2     1  UNL1       -0.2655
     17 N         141.1315  143.1745  169.5555 N.ar    1  UNL1       -0.2134
     18 C         140.3827  144.3537  170.1024 C.3     1  UNL1        0.1571
     19 N         140.4756  142.2668  168.5576 N.ar    1  UNL1       -0.1517
     20 C         142.8603  137.6446  161.0488 C.3     1  UNL1        0.1063
     21 C         142.6862  138.4290  159.7822 C.3     1  UNL1        0.1483
     22 O         143.2345  137.8992  158.4905 O.3     1  UNL1       -0.3786
     23 H         143.0371  138.5238  157.7751 H       1  UNL1        0.2108
     24 C         139.7670  138.5494  159.1013 C.3     1  UNL1        0.0306
     25 C         140.5041  139.8035  159.4669 C.ar    1  UNL1       -0.0238
     26 C         141.9637  139.7434  159.8074 C.ar    1  UNL1        0.0015
     27 C         142.7008  140.9975  160.1730 C.ar    1  UNL1       -0.0020
     28 C         141.9784  142.3118  160.1982 C.ar    1  UNL1        0.0060
     29 C         140.5188  142.3720  159.8577 C.ar    1  UNL1        0.0748
     30 C         139.7817  141.1178  159.4920 C.ar    1  UNL1        0.0233
     31 C         138.3558  141.4850  159.2059 C.3     1  UNL1        0.2352
     32 O         138.2116  142.9661  159.3947 O.3     1  UNL1       -0.4404
     33 C         139.5485  143.5142  159.7975 C.2     1  UNL1        0.3413
     34 O         139.8603  144.9522  160.0890 O.2     1  UNL1       -0.2449
@<TRIPOS>BOND
     1    24    25    1
     2    25    26   ar
     3    26    21    1
     4    21    22    1
     5    21    20    1
     6    20     1    1
     7     1     2    1
     8     2     3    1
     9     3     4    1
    10     4     5    1
    11     5     6    1
    12     4     7    1
    13     7     8    1
    14     8    12    1
    15    12    13   ar
    16    13    14   ar
    17    14    15   ar
    18    15    16    2
    19    15    17   ar
    20    17    18    1
    21    17    19   ar
    22     8     9    1
    23     9    10    1
    24    10    11    1
    25    26    27   ar
    26    27    28   ar
    27    28    29   ar
    28    29    30   ar
    29    30    31    1
    30    31    32    1
    31    32    33    1
    32    33    34    2
    33    30    25   ar
    34     6     1    1
    35    19    12   ar
    36    33    29    1
    37    11     4    1
    38    22    23    1
@<TRIPOS>MOLECULE
*****
 34 38 0 0 0
SMALL
GASTEIGER

@<TRIPOS>ATOM
      1 N         144.0126  142.0574  162.4411 N.3     1  UNL1       -0.2702
      2 C         143.3869  142.6378  163.6746 C.3     1  UNL1        0.0747
      3 C         143.2020  141.7845  164.8942 C.3     1  UNL1        0.0463
      4 C         143.6427  140.3508  164.8803 C.3     1  UNL1        0.1136
      5 C         144.2684  139.7704  163.6468 C.3     1  UNL1        0.0463
      6 C         144.4533  140.6237  162.4272 C.3     1  UNL1        0.0747
      7 C         143.0170  140.9311  166.1139 C.3     1  UNL1        0.1194
      8 N         142.8320  140.0778  167.3336 N.pl3   1  UNL1       -0.2869
      9 C         143.2728  138.6441  167.3197 C.3     1  UNL1        0.1243
     10 C         143.8985  138.0637  166.0862 C.3     1  UNL1        0.1634
     11 O         144.0834  138.9170  164.8664 O.3     1  UNL1       -0.3549
     12 C         142.2063  140.6581  168.5672 C.ar    1  UNL1        0.1518
     13 C         142.1721  139.8605  169.8370 C.ar    1  UNL1        0.0410
     14 C         141.5464  140.4407  171.0706 C.ar    1  UNL1        0.0651
     15 C         140.9550  141.8187  171.0343 C.ar    1  UNL1        0.2766
     16 O         140.3293  142.3991  172.2679 O.2     1  UNL1       -0.2655
     17 N         140.9892  142.6164  169.7645 N.ar    1  UNL1       -0.2134
     18 C         140.3978  143.9945  169.7282 C.3     1  UNL1        0.1571
     19 N         141.6149  142.0361  168.5309 N.ar    1  UNL1       -0.1517
     20 C         144.1976  142.9108  161.2213 C.3     1  UNL1        0.1063
     21 C         143.0776  143.0624  160.2352 C.3     1  UNL1        0.1483
     22 O         143.2576  143.9271  159.0228 O.3     1  UNL1       -0.3786
     23 H         142.4446  143.9158  158.4940 H       1  UNL1        0.2108
     24 C         140.8530  144.4307  161.7114 C.3     1  UNL1        0.0306
     25 C         140.6652  143.0334  161.1994 C.ar    1  UNL1       -0.0238
     26 C         141.7774  142.3492  160.4613 C.ar    1  UNL1        0.0015
     27 C         141.5896  140.9518  159.9494 C.ar    1  UNL1       -0.0020
     28 C         140.2896  140.2386  160.1755 C.ar    1  UNL1        0.0060
     29 C         139.1773  140.9228  160.9135 C.ar    1  UNL1        0.0748
     30 C         139.3652  142.3202  161.4255 C.ar    1  UNL1        0.0233
     31 C         138.0986  142.7360  162.1132 C.3     1  UNL1        0.2352
     32 O         137.1280  141.5957  162.0262 O.3     1  UNL1       -0.4404
     33 C         137.7947  140.4751  161.2848 C.2     1  UNL1        0.3413
     34 O         137.1857  139.1409  160.9699 O.2     1  UNL1       -0.2449
@<TRIPOS>BOND
     1    24    25    1
     2    25    26   ar
     3    26    21    1
     4    21    22    1
     5    21    20    1
     6    20     1    1
     7     1     2    1
     8     2     3    1
     9     3     4    1
    10     4     5    1
    11     5     6    1
    12     4     7    1
    13     7     8    1
    14     8    12    1
    15    12    13   ar
    16    13    14   ar
    17    14    15   ar
    18    15    16    2
    19    15    17   ar
    20    17    18    1
    21    17    19   ar
    22     8     9    1
    23     9    10    1
    24    10    11    1
    25    26    27   ar
    26    27    28   ar
    27    28    29   ar
    28    29    30   ar
    29    30    31    1
    30    31    32    1
    31    32    33    1
    32    33    34    2
    33    30    25   ar
    34     6     1    1
    35    19    12   ar
    36    33    29    1
    37    11     4    1
    38    22    23    1
@<TRIPOS>MOLECULE
*****
 34 38 0 0 0
SMALL
GASTEIGER

@<TRIPOS>ATOM
      1 N         139.3293  137.7234  163.8832 N.3     1  UNL1       -0.2702
      2 C         138.4852  138.0763  162.6946 C.3     1  UNL1        0.0747
      3 C         139.1172  138.2195  161.3419 C.3     1  UNL1        0.0463
      4 C         140.5934  138.0100  161.1778 C.3     1  UNL1        0.1136
      5 C         141.4376  137.6571  162.3664 C.3     1  UNL1        0.0463
      6 C         140.8055  137.5138  163.7191 C.3     1  UNL1        0.0747
      7 C         139.7492  138.3628  159.9890 C.3     1  UNL1        0.1194
      8 N         140.3813  138.5061  158.6363 N.pl3   1  UNL1       -0.2869
      9 C         141.8575  138.2965  158.4722 C.3     1  UNL1        0.1243
     10 C         142.7016  137.9437  159.6608 C.3     1  UNL1        0.1634
     11 O         142.0696  137.8004  161.0136 O.3     1  UNL1       -0.3549
     12 C         139.5371  138.8590  157.4476 C.ar    1  UNL1        0.1518
     13 C         139.6919  138.0968  156.1650 C.ar    1  UNL1        0.0410
     14 C         138.8478  138.4496  154.9763 C.ar    1  UNL1        0.0651
     15 C         137.8489  139.5647  155.0703 C.ar    1  UNL1        0.2766
     16 O         137.0048  139.9175  153.8816 O.2     1  UNL1       -0.2655
     17 N         137.6942  140.3269  156.3529 N.ar    1  UNL1       -0.2134
     18 C         136.6952  141.4420  156.4468 C.3     1  UNL1        0.1571
     19 N         138.5382  139.9741  157.5415 N.ar    1  UNL1       -0.1517
     20 C         138.6973  137.5801  165.2361 C.3     1  UNL1        0.1063
     21 C         138.4769  138.7913  166.0930 C.3     1  UNL1        0.1483
     22 O         137.9072  138.6405  167.4724 O.3     1  UNL1       -0.3786
     23 H         137.8298  139.5138  167.8875 H       1  UNL1        0.2108
     24 C         141.2134  139.9245  166.5704 C.3     1  UNL1        0.0306
     25 C         140.1945  140.7199  165.8093 C.ar    1  UNL1       -0.0238
     26 C         138.8263  140.1533  165.5706 C.ar    1  UNL1        0.0015
     27 C         137.8074  140.9487  164.8095 C.ar    1  UNL1       -0.0020
     28 C         138.1568  142.3107  164.2871 C.ar    1  UNL1        0.0060
     29 C         139.5249  142.8773  164.5258 C.ar    1  UNL1        0.0748
     30 C         140.5438  142.0819  165.2869 C.ar    1  UNL1        0.0233
     31 C         141.8017  142.8951  165.3663 C.3     1  UNL1        0.2352
     32 O         141.5604  144.1931  164.6543 O.3     1  UNL1       -0.4404
     33 C         140.1532  144.1821  164.1349 C.2     1  UNL1        0.3413
     34 O         139.4906  145.2826  163.3604 O.2     1  UNL1       -0.2449
@<TRIPOS>BOND
     1    24    25    1
     2    25    26   ar
     3    26    21    1
     4    21    22    1
     5    21    20    1
     6    20     1    1
     7     1     2    1
     8     2     3    1
     9     3     4    1
    10     4     5    1
    11     5     6    1
    12     4     7    1
    13     7     8    1
    14     8    12    1
    15    12    13   ar
    16    13    14   ar
    17    14    15   ar
    18    15    16    2
    19    15    17   ar
    20    17    18    1
    21    17    19   ar
    22     8     9    1
    23     9    10    1
    24    10    11    1
    25    26    27   ar
    26    27    28   ar
    27    28    29   ar
    28    29    30   ar
    29    30    31    1
    30    31    32    1
    31    32    33    1
    32    33    34    2
    33    30    25   ar
    34     6     1    1
    35    19    12   ar
    36    33    29    1
    37    11     4    1
    38    22    23    1
@<TRIPOS>MOLECULE
*****
 34 38 0 0 0
SMALL
GASTEIGER

@<TRIPOS>ATOM
      1 N         141.9390  138.1081  162.5456 N.3     1  UNL1       -0.2702
      2 C         142.4931  138.8180  163.7451 C.3     1  UNL1        0.0747
      3 C         141.6169  139.0759  164.9349 C.3     1  UNL1        0.0463
      4 C         140.1867  138.6238  164.9253 C.3     1  UNL1        0.1136
      5 C         139.6326  137.9139  163.7258 C.3     1  UNL1        0.0463
      6 C         140.5088  137.6560  162.5359 C.3     1  UNL1        0.0747
      7 C         140.7408  139.3338  166.1249 C.3     1  UNL1        0.1194
      8 N         139.8647  139.5917  167.3148 N.pl3   1  UNL1       -0.2869
      9 C         138.4345  139.1396  167.3051 C.3     1  UNL1        0.1243
     10 C         137.8804  138.4297  166.1056 C.3     1  UNL1        0.1634
     11 O         138.7565  138.1718  164.9157 O.3     1  UNL1       -0.3549
     12 C         140.4188  140.3017  168.5144 C.ar    1  UNL1        0.1518
     13 C         139.6039  140.4010  169.7698 C.ar    1  UNL1        0.0410
     14 C         140.1579  141.1109  170.9694 C.ar    1  UNL1        0.0651
     15 C         141.5268  141.7216  170.9135 C.ar    1  UNL1        0.2766
     16 O         142.0808  142.4316  172.1131 O.2     1  UNL1       -0.2655
     17 N         142.3416  141.6224  169.6581 N.ar    1  UNL1       -0.2134
     18 C         143.7106  142.2331  169.6022 C.3     1  UNL1        0.1571
     19 N         141.7876  140.9124  168.4585 N.ar    1  UNL1       -0.1517
     20 C         142.8151  137.8502  161.3556 C.3     1  UNL1        0.1063
     21 C         143.2854  138.9950  160.5082 C.3     1  UNL1        0.1483
     22 O         143.7427  138.7484  159.1011 O.3     1  UNL1       -0.3786
     23 H         144.0114  139.5880  158.6966 H       1  UNL1        0.2108
     24 C         140.8586  140.7394  160.2471 C.3     1  UNL1        0.0306
     25 C         142.0849  141.2588  160.9374 C.ar    1  UNL1       -0.0238
     26 C         143.2982  140.3867  161.0680 C.ar    1  UNL1        0.0015
     27 C         144.5245  140.9061  161.7582 C.ar    1  UNL1       -0.0020
     28 C         144.5374  142.2977  162.3179 C.ar    1  UNL1        0.0060
     29 C         143.3240  143.1698  162.1874 C.ar    1  UNL1        0.0748
     30 C         142.0978  142.6504  161.4971 C.ar    1  UNL1        0.0233
     31 C         141.0597  143.7329  161.5195 C.3     1  UNL1        0.2352
     32 O         141.6443  144.9214  162.2235 O.3     1  UNL1       -0.4404
     33 C         143.0437  144.5734  162.6363 C.2     1  UNL1        0.3413
     34 O         143.9958  145.4712  163.3694 O.2     1  UNL1       -0.2449
@<TRIPOS>BOND
     1    24    25    1
     2    25    26   ar
     3    26    21    1
     4    21    22    1
     5    21    20    1
     6    20     1    1
     7     1     2    1
     8     2     3    1
     9     3     4    1
    10     4     5    1
    11     5     6    1
    12     4     7    1
    13     7     8    1
    14     8    12    1
    15    12    13   ar
    16    13    14   ar
    17    14    15   ar
    18    15    16    2
    19    15    17   ar
    20    17    18    1
    21    17    19   ar
    22     8     9    1
    23     9    10    1
    24    10    11    1
    25    26    27   ar
    26    27    28   ar
    27    28    29   ar
    28    29    30   ar
    29    30    31    1
    30    31    32    1
    31    32    33    1
    32    33    34    2
    33    30    25   ar
    34     6     1    1
    35    19    12   ar
    36    33    29    1
    37    11     4    1
    38    22    23    1
@<TRIPOS>MOLECULE
*****
 34 38 0 0 0
SMALL
GASTEIGER

@<TRIPOS>ATOM
      1 N         143.7242  142.5792  163.6319 N.3     1  UNL1       -0.2702
      2 C         143.8167  142.7038  162.1400 C.3     1  UNL1        0.0747
      3 C         142.8568  143.5878  161.4003 C.3     1  UNL1        0.0463
      4 C         141.8044  144.3471  162.1525 C.3     1  UNL1        0.1136
      5 C         141.7119  144.2225  163.6445 C.3     1  UNL1        0.0463
      6 C         142.6718  143.3385  164.3841 C.3     1  UNL1        0.0747
      7 C         141.8969  144.4718  160.6605 C.3     1  UNL1        0.1194
      8 N         140.9370  145.3557  159.9209 N.pl3   1  UNL1       -0.2869
      9 C         139.8846  146.1151  160.6731 C.3     1  UNL1        0.1243
     10 C         139.7921  145.9904  162.1650 C.3     1  UNL1        0.1634
     11 O         140.7520  145.1064  162.9048 O.3     1  UNL1       -0.3549
     12 C         141.0295  145.4804  158.4289 C.ar    1  UNL1        0.1518
     13 C         142.1818  144.8616  157.6946 C.ar    1  UNL1        0.0410
     14 C         142.2743  144.9862  156.2027 C.ar    1  UNL1        0.0651
     15 C         141.2145  145.7297  155.4450 C.ar    1  UNL1        0.2766
     16 O         141.3070  145.8544  153.9530 O.2     1  UNL1       -0.2655
     17 N         140.0622  146.3486  156.1794 N.ar    1  UNL1       -0.2134
     18 C         139.0024  147.0921  155.4217 C.3     1  UNL1        0.1571
     19 N         139.9697  146.2239  157.6713 N.ar    1  UNL1       -0.1517
     20 C         144.6842  141.6952  164.3716 C.3     1  UNL1        0.1063
     21 C         144.4361  140.2179  164.4491 C.3     1  UNL1        0.1483
     22 O         145.5737  139.2561  164.2740 O.3     1  UNL1       -0.3786
     23 H         145.2438  138.3473  164.3523 H       1  UNL1        0.2108
     24 C         142.9445  138.7950  162.2694 C.3     1  UNL1        0.0306
     25 C         142.3045  138.9909  163.6118 C.ar    1  UNL1       -0.0238
     26 C         143.0502  139.7023  164.7016 C.ar    1  UNL1        0.0015
     27 C         142.4102  139.8982  166.0440 C.ar    1  UNL1       -0.0020
     28 C         141.0244  139.3827  166.2965 C.ar    1  UNL1        0.0060
     29 C         140.2787  138.6712  165.2067 C.ar    1  UNL1        0.0748
     30 C         140.9187  138.4754  163.8643 C.ar    1  UNL1        0.0233
     31 C         139.9461  137.7411  162.9898 C.3     1  UNL1        0.2352
     32 O         138.7049  137.4832  163.7916 O.3     1  UNL1       -0.4404
     33 C         138.9105  138.0580  165.1618 C.2     1  UNL1        0.3413
     34 O         137.9215  138.0254  166.2891 O.2     1  UNL1       -0.2449
@<TRIPOS>BOND
     1    24    25    1
     2    25    26   ar
     3    26    21    1
     4    21    22    1
     5    21    20    1
     6    20     1    1
     7     1     2    1
     8     2     3    1
     9     3     4    1
    10     4     5    1
    11     5     6    1
    12     4     7    1
    13     7     8    1
    14     8    12    1
    15    12    13   ar
    16    13    14   ar
    17    14    15   ar
    18    15    16    2
    19    15    17   ar
    20    17    18    1
    21    17    19   ar
    22     8     9    1
    23     9    10    1
    24    10    11    1
    25    26    27   ar
    26    27    28   ar
    27    28    29   ar
    28    29    30   ar
    29    30    31    1
    30    31    32    1
    31    32    33    1
    32    33    34    2
    33    30    25   ar
    34     6     1    1
    35    19    12   ar
    36    33    29    1
    37    11     4    1
    38    22    23    1
@<TRIPOS>MOLECULE
*****
 34 38 0 0 0
SMALL
GASTEIGER

@<TRIPOS>ATOM
      1 N         138.5888  141.1605  164.0767 N.3     1  UNL1       -0.2702
      2 C         139.3771  140.8673  162.8348 C.3     1  UNL1        0.0747
      3 C         139.8217  141.9908  161.9460 C.3     1  UNL1        0.0463
      4 C         139.4779  143.4075  162.2991 C.3     1  UNL1        0.1136
      5 C         138.6896  143.7007  163.5411 C.3     1  UNL1        0.0463
      6 C         138.2450  142.5772  164.4299 C.3     1  UNL1        0.0747
      7 C         140.2663  143.1143  161.0571 C.3     1  UNL1        0.1194
      8 N         140.7109  144.2378  160.1683 N.pl3   1  UNL1       -0.2869
      9 C         140.3672  145.6546  160.5214 C.3     1  UNL1        0.1243
     10 C         139.5788  145.9478  161.7634 C.3     1  UNL1        0.1634
     11 O         139.1342  144.8242  162.6523 O.3     1  UNL1       -0.3549
     12 C         141.4993  143.9447  158.9263 C.ar    1  UNL1        0.1518
     13 C         140.9028  144.2177  157.5774 C.ar    1  UNL1        0.0410
     14 C         141.6911  143.9245  156.3354 C.ar    1  UNL1        0.0651
     15 C         143.0760  143.3584  156.4423 C.ar    1  UNL1        0.2766
     16 O         143.8644  143.0652  155.2003 O.2     1  UNL1       -0.2655
     17 N         143.6726  143.0854  157.7912 N.ar    1  UNL1       -0.2134
     18 C         145.0575  142.5192  157.8981 C.3     1  UNL1        0.1571
     19 N         142.8842  143.3785  159.0332 N.ar    1  UNL1       -0.1517
     20 C         138.1442  140.0369  164.9656 C.3     1  UNL1        0.1063
     21 C         139.1324  139.3570  165.8661 C.3     1  UNL1        0.1483
     22 O         139.7076  138.0267  165.4797 O.3     1  UNL1       -0.3786
     23 H         140.3248  137.7295  166.1664 H       1  UNL1        0.2108
     24 C         141.5653  141.1104  165.9476 C.3     1  UNL1        0.0306
     25 C         140.7619  140.8841  167.1939 C.ar    1  UNL1       -0.0238
     26 C         139.5454  140.0074  167.1532 C.ar    1  UNL1        0.0015
     27 C         138.7420  139.7810  168.3995 C.ar    1  UNL1       -0.0020
     28 C         139.1550  140.4313  169.6865 C.ar    1  UNL1        0.0060
     29 C         140.3714  141.3080  169.7272 C.ar    1  UNL1        0.0748
     30 C         141.1749  141.5344  168.4809 C.ar    1  UNL1        0.0233
     31 C         142.3178  142.4429  168.8249 C.3     1  UNL1        0.2352
     32 O         142.2209  142.7780  170.2837 O.3     1  UNL1       -0.4404
     33 C         141.0179  142.0766  170.8414 C.2     1  UNL1        0.3413
     34 O         140.5445  142.1337  172.2636 O.2     1  UNL1       -0.2449
@<TRIPOS>BOND
     1    24    25    1
     2    25    26   ar
     3    26    21    1
     4    21    22    1
     5    21    20    1
     6    20     1    1
     7     1     2    1
     8     2     3    1
     9     3     4    1
    10     4     5    1
    11     5     6    1
    12     4     7    1
    13     7     8    1
    14     8    12    1
    15    12    13   ar
    16    13    14   ar
    17    14    15   ar
    18    15    16    2
    19    15    17   ar
    20    17    18    1
    21    17    19   ar
    22     8     9    1
    23     9    10    1
    24    10    11    1
    25    26    27   ar
    26    27    28   ar
    27    28    29   ar
    28    29    30   ar
    29    30    31    1
    30    31    32    1
    31    32    33    1
    32    33    34    2
    33    30    25   ar
    34     6     1    1
    35    19    12   ar
    36    33    29    1
    37    11     4    1
    38    22    23    1
@<TRIPOS>MOLECULE
*****
 34 38 0 0 0
SMALL
GASTEIGER

@<TRIPOS>ATOM
      1 N         142.5034  139.3624  162.8216 N.3     1  UNL1       -0.2702
      2 C         142.1348  138.1008  162.0988 C.3     1  UNL1        0.0747
      3 C         142.3548  137.9928  160.6190 C.3     1  UNL1        0.0463
      4 C         142.9433  139.1463  159.8620 C.3     1  UNL1        0.1136
      5 C         143.3118  140.4079  160.5848 C.3     1  UNL1        0.0463
      6 C         143.0919  140.5160  162.0646 C.3     1  UNL1        0.0747
      7 C         142.5747  137.8846  159.1391 C.3     1  UNL1        0.1194
      8 N         142.7946  137.7766  157.6593 N.pl3   1  UNL1       -0.2869
      9 C         143.3831  138.9301  156.9023 C.3     1  UNL1        0.1243
     10 C         143.7517  140.1917  157.6251 C.3     1  UNL1        0.1634
     11 O         143.5318  140.2998  159.1050 O.3     1  UNL1       -0.3549
     12 C         142.4260  136.5149  156.9364 C.ar    1  UNL1        0.1518
     13 C         141.4212  136.5545  155.8234 C.ar    1  UNL1        0.0410
     14 C         141.0526  135.2929  155.1005 C.ar    1  UNL1        0.0651
     15 C         141.6888  133.9918  155.4907 C.ar    1  UNL1        0.2766
     16 O         141.3202  132.7302  154.7678 O.2     1  UNL1       -0.2655
     17 N         142.6936  133.9522  156.6037 N.ar    1  UNL1       -0.2134
     18 C         143.3298  132.6510  156.9939 C.3     1  UNL1        0.1571
     19 N         143.0622  135.2138  157.3266 N.ar    1  UNL1       -0.1517
     20 C         142.2835  139.4706  164.3015 C.3     1  UNL1        0.1063
     21 C         141.2866  140.4525  164.8418 C.3     1  UNL1        0.1483
     22 O         140.3101  141.1160  163.9165 O.3     1  UNL1       -0.3786
     23 H         139.7415  141.7167  164.4232 H       1  UNL1        0.2108
     24 C         139.0295  139.4731  166.5583 C.3     1  UNL1        0.0306
     25 C         140.1376  140.2812  167.1657 C.ar    1  UNL1       -0.0238
     26 C         141.2661  140.7709  166.3076 C.ar    1  UNL1        0.0015
     27 C         142.3743  141.5790  166.9150 C.ar    1  UNL1       -0.0020
     28 C         142.3538  141.8975  168.3807 C.ar    1  UNL1        0.0060
     29 C         141.2253  141.4078  169.2388 C.ar    1  UNL1        0.0748
     30 C         140.1172  140.5996  168.6314 C.ar    1  UNL1        0.0233
     31 C         139.1438  140.2559  169.7197 C.3     1  UNL1        0.2352
     32 O         139.6504  140.8515  170.9998 O.3     1  UNL1       -0.4404
     33 C         140.9368  141.5634  170.7026 C.2     1  UNL1        0.3413
     34 O         141.7857  142.3015  171.6949 O.2     1  UNL1       -0.2449
@<TRIPOS>BOND
     1    24    25    1
     2    25    26   ar
     3    26    21    1
     4    21    22    1
     5    21    20    1
     6    20     1    1
     7     1     2    1
     8     2     3    1
     9     3     4    1
    10     4     5    1
    11     5     6    1
    12     4     7    1
    13     7     8    1
    14     8    12    1
    15    12    13   ar
    16    13    14   ar
    17    14    15   ar
    18    15    16    2
    19    15    17   ar
    20    17    18    1
    21    17    19   ar
    22     8     9    1
    23     9    10    1
    24    10    11    1
    25    26    27   ar
    26    27    28   ar
    27    28    29   ar
    28    29    30   ar
    29    30    31    1
    30    31    32    1
    31    32    33    1
    32    33    34    2
    33    30    25   ar
    34     6     1    1
    35    19    12   ar
    36    33    29    1
    37    11     4    1
    38    22    23    1
@<TRIPOS>MOLECULE
*****
 34 38 0 0 0
SMALL
GASTEIGER

@<TRIPOS>ATOM
      1 N         143.5916  139.2488  162.8132 N.3     1  UNL1       -0.2702
      2 C         143.1639  137.9930  162.1132 C.3     1  UNL1        0.0747
      3 C         143.0669  137.9644  160.6167 C.3     1  UNL1        0.0463
      4 C         143.3976  139.1916  159.8201 C.3     1  UNL1        0.1136
      5 C         143.8253  140.4474  160.5200 C.3     1  UNL1        0.0463
      6 C         143.9223  140.4760  162.0165 C.3     1  UNL1        0.0747
      7 C         142.9699  137.9357  159.1200 C.3     1  UNL1        0.1194
      8 N         142.8730  137.9071  157.6235 N.pl3   1  UNL1       -0.2869
      9 C         143.2037  139.1343  156.8269 C.3     1  UNL1        0.1243
     10 C         143.6314  140.3901  157.5268 C.3     1  UNL1        0.1634
     11 O         143.7284  140.4188  159.0234 O.3     1  UNL1       -0.3549
     12 C         142.4453  136.6512  156.9235 C.ar    1  UNL1        0.1518
     13 C         141.3840  136.7069  155.8649 C.ar    1  UNL1        0.0410
     14 C         140.9563  135.4511  155.1649 C.ar    1  UNL1        0.0651
     15 C         141.5899  134.1397  155.5234 C.ar    1  UNL1        0.2766
     16 O         141.1622  132.8838  154.8234 O.2     1  UNL1       -0.2655
     17 N         142.6512  134.0840  156.5820 N.ar    1  UNL1       -0.2134
     18 C         143.2848  132.7725  156.9405 C.3     1  UNL1        0.1571
     19 N         143.0789  135.3398  157.2820 N.ar    1  UNL1       -0.1517
     20 C         143.6886  139.2775  164.3098 C.3     1  UNL1        0.1063
     21 C         142.4788  139.6055  165.1336 C.3     1  UNL1        0.1483
     22 O         142.3513  139.0653  166.5272 O.3     1  UNL1       -0.3786
     23 H         141.5170  139.3700  166.9170 H       1  UNL1        0.2108
     24 C         139.9896  138.3597  164.0145 C.3     1  UNL1        0.0306
     25 C         140.1518  139.8509  164.0044 C.ar    1  UNL1       -0.0238
     26 C         141.3963  140.4738  164.5639 C.ar    1  UNL1        0.0015
     27 C         141.5585  141.9650  164.5538 C.ar    1  UNL1       -0.0020
     28 C         140.4761  142.8333  163.9841 C.ar    1  UNL1        0.0060
     29 C         139.2316  142.2104  163.4246 C.ar    1  UNL1        0.0748
     30 C         139.0694  140.7192  163.4347 C.ar    1  UNL1        0.0233
     31 C         137.7416  140.3932  162.8178 C.3     1  UNL1        0.2352
     32 O         137.0831  141.6828  162.4264 O.3     1  UNL1       -0.4404
     33 C         138.0040  142.8059  162.8014 C.2     1  UNL1        0.3413
     34 O         137.7431  144.2679  162.5903 O.2     1  UNL1       -0.2449
@<TRIPOS>BOND
     1    24    25    1
     2    25    26   ar
     3    26    21    1
     4    21    22    1
     5    21    20    1
     6    20     1    1
     7     1     2    1
     8     2     3    1
     9     3     4    1
    10     4     5    1
    11     5     6    1
    12     4     7    1
    13     7     8    1
    14     8    12    1
    15    12    13   ar
    16    13    14   ar
    17    14    15   ar
    18    15    16    2
    19    15    17   ar
    20    17    18    1
    21    17    19   ar
    22     8     9    1
    23     9    10    1
    24    10    11    1
    25    26    27   ar
    26    27    28   ar
    27    28    29   ar
    28    29    30   ar
    29    30    31    1
    30    31    32    1
    31    32    33    1
    32    33    34    2
    33    30    25   ar
    34     6     1    1
    35    19    12   ar
    36    33    29    1
    37    11     4    1
    38    22    23    1
