@<TRIPOS>MOLECULE
*****
 28 30 0 0 0
SMALL
GASTEIGER

@<TRIPOS>ATOM
      1 C         141.7041  140.0254  168.1103 C.ar    1  UNL1        0.1721
      2 C         142.0923  139.6145  166.7209 C.ar    1  UNL1        0.0368
      3 C         141.0324  139.2709  165.7167 C.ar    1  UNL1       -0.0084
      4 C         139.5843  139.3381  166.1019 C.ar    1  UNL1       -0.0203
      5 C         139.1961  139.7489  167.4913 C.ar    1  UNL1        0.0356
      6 C         140.2560  140.0926  168.4955 C.ar    1  UNL1        0.1723
      7 C         138.5243  138.9944  165.0977 C.3     1  UNL1        0.0435
      8 C         138.9125  138.5836  163.7083 C.3     1  UNL1        0.0770
      9 N         140.3606  138.5163  163.3231 N.3     1  UNL1       -0.2699
     10 C         140.7488  138.1055  161.9337 C.3     1  UNL1        0.0747
     11 C         142.1970  138.0383  161.5484 C.3     1  UNL1        0.0429
     12 C         143.2569  138.3819  162.5526 C.3     1  UNL1        0.1135
     13 O         144.7050  138.3147  162.1674 O.3     1  UNL1       -0.3844
     14 C         142.8687  138.7928  163.9421 C.3     1  UNL1        0.0497
     15 C         141.4206  138.8600  164.3273 C.3     1  UNL1        0.0823
     16 H         145.2536  138.5658  162.9269 H       1  UNL1        0.2103
     17 C         142.9345  139.5259  170.3434 C.3     1  UNL1        0.2526
     18 O         142.7641  140.3690  169.1145 O.3     1  UNL1       -0.4684
     19 O         139.8678  140.5034  169.8850 O.3     1  UNL1       -0.4635
     20 C         139.5841  141.9446  170.1892 C.3     1  UNL1        0.3082
     21 C         140.6989  142.9481  170.1735 C.3     1  UNL1        0.4380
     22 F         141.8137  143.9515  170.1576 F       1  UNL1       -0.1663
     23 F         141.3462  142.2473  171.3310 F       1  UNL1       -0.1663
     24 F         140.0517  143.6489  169.0159 F       1  UNL1       -0.1663
     25 C         142.5851  137.6274  160.1590 C.3     1  UNL1        0.0038
     26 C         142.5585  138.6315  159.0449 C.3     1  UNL1        0.0001
     27 C         141.5944  138.4648  157.9080 C.3     1  UNL1        0.0000
     28 C         143.4959  139.8022  159.0678 C.3     1  UNL1        0.0000
@<TRIPOS>BOND
     1    17    18    1
     2    18     1    1
     3     1     2   ar
     4     2     3   ar
     5     3     4   ar
     6     4     5   ar
     7     5     6   ar
     8     6    19    1
     9    19    20    1
    10    20    21    1
    11    21    22    1
    12    21    23    1
    13    21    24    1
    14     4     7    1
    15     7     8    1
    16     8     9    1
    17     9    10    1
    18    10    11    1
    19    11    25    1
    20    25    26    1
    21    26    27    1
    22    26    28    1
    23    11    12    1
    24    12    13    1
    25    12    14    1
    26    14    15    1
    27     6     1   ar
    28    15     9    1
    29    15     3    1
    30    13    16    1
@<TRIPOS>MOLECULE
*****
 28 30 0 0 0
SMALL
GASTEIGER

@<TRIPOS>ATOM
      1 C         140.4989  140.4137  168.4479 C.ar    1  UNL1        0.1721
      2 C         139.8444  140.4607  167.0991 C.ar    1  UNL1        0.0368
      3 C         140.5609  139.9177  165.8984 C.ar    1  UNL1       -0.0084
      4 C         141.9319  139.3276  166.0465 C.ar    1  UNL1       -0.0203
      5 C         142.5864  139.2806  167.3953 C.ar    1  UNL1        0.0356
      6 C         141.8699  139.8236  168.5960 C.ar    1  UNL1        0.1723
      7 C         142.6485  138.7845  164.8458 C.3     1  UNL1        0.0435
      8 C         141.9940  138.8316  163.4970 C.3     1  UNL1        0.0770
      9 N         140.6228  139.4217  163.3488 N.3     1  UNL1       -0.2699
     10 C         139.9683  139.4687  162.0000 C.3     1  UNL1        0.0747
     11 C         138.5972  140.0588  161.8518 C.3     1  UNL1        0.0429
     12 C         137.8807  140.6019  163.0525 C.3     1  UNL1        0.1135
     13 O         136.5096  141.1919  162.9044 O.3     1  UNL1       -0.3844
     14 C         138.5353  140.5548  164.4014 C.3     1  UNL1        0.0497
     15 C         139.9063  139.9647  164.5495 C.3     1  UNL1        0.0823
     16 H         136.1923  141.4937  163.7699 H       1  UNL1        0.2103
     17 C         138.5222  140.3010  170.1302 C.3     1  UNL1        0.2526
     18 O         139.7823  140.9568  169.6486 O.3     1  UNL1       -0.4684
     19 O         142.5245  139.7766  169.9449 O.3     1  UNL1       -0.4635
     20 C         143.3812  140.9194  170.4030 C.3     1  UNL1        0.3082
     21 C         142.8660  142.3254  170.3149 C.3     1  UNL1        0.4380
     22 F         142.3508  143.7314  170.2268 F       1  UNL1       -0.1663
     23 F         143.7163  142.5610  169.1018 F       1  UNL1       -0.1663
     24 F         142.0158  142.0899  171.5279 F       1  UNL1       -0.1663
     25 C         137.9427  140.1058  160.5030 C.3     1  UNL1        0.0038
     26 C         138.4161  141.0886  159.4735 C.3     1  UNL1        0.0001
     27 C         138.7264  140.6252  158.0811 C.3     1  UNL1        0.0000
     28 C         138.5792  142.5349  159.8364 C.3     1  UNL1        0.0000
@<TRIPOS>BOND
     1    17    18    1
     2    18     1    1
     3     1     2   ar
     4     2     3   ar
     5     3     4   ar
     6     4     5   ar
     7     5     6   ar
     8     6    19    1
     9    19    20    1
    10    20    21    1
    11    21    22    1
    12    21    23    1
    13    21    24    1
    14     4     7    1
    15     7     8    1
    16     8     9    1
    17     9    10    1
    18    10    11    1
    19    11    25    1
    20    25    26    1
    21    26    27    1
    22    26    28    1
    23    11    12    1
    24    12    13    1
    25    12    14    1
    26    14    15    1
    27     6     1   ar
    28    15     9    1
    29    15     3    1
    30    13    16    1
@<TRIPOS>MOLECULE
*****
 28 30 0 0 0
SMALL
GASTEIGER

@<TRIPOS>ATOM
      1 C         141.9024  141.1561  167.7378 C.ar    1  UNL1        0.1721
      2 C         141.9274  141.9850  166.4879 C.ar    1  UNL1        0.0368
      3 C         140.7462  141.9838  165.5634 C.ar    1  UNL1       -0.0084
      4 C         139.5399  141.1537  165.8888 C.ar    1  UNL1       -0.0203
      5 C         139.5149  140.3248  167.1386 C.ar    1  UNL1        0.0356
      6 C         140.6962  140.3260  168.0631 C.ar    1  UNL1        0.1723
      7 C         138.3587  141.1526  164.9642 C.3     1  UNL1        0.0435
      8 C         138.3837  141.9815  163.7144 C.3     1  UNL1        0.0770
      9 N         139.5900  142.8117  163.3890 N.3     1  UNL1       -0.2699
     10 C         139.6150  143.6406  162.1391 C.3     1  UNL1        0.0747
     11 C         140.8213  144.4708  161.8137 C.3     1  UNL1        0.0429
     12 C         142.0025  144.4719  162.7382 C.3     1  UNL1        0.1135
     13 O         143.2087  145.3020  162.4129 O.3     1  UNL1       -0.3844
     14 C         141.9774  143.6429  163.9881 C.3     1  UNL1        0.0497
     15 C         140.7712  142.8128  164.3135 C.3     1  UNL1        0.0823
     16 H         143.8757  145.1896  163.1081 H       1  UNL1        0.2103
     17 C         143.5838  142.4487  169.2384 C.3     1  UNL1        0.2526
     18 O         143.0836  141.1573  168.6623 O.3     1  UNL1       -0.4684
     19 O         140.6711  139.4970  169.3130 O.3     1  UNL1       -0.4635
     20 C         140.2746  140.1202  170.6185 C.3     1  UNL1        0.3082
     21 C         139.7950  141.5410  170.6563 C.3     1  UNL1        0.4380
     22 F         139.3153  142.9617  170.6941 F       1  UNL1       -0.1663
     23 F         141.1415  141.9825  171.1481 F       1  UNL1       -0.1663
     24 F         138.4484  141.0995  170.1646 F       1  UNL1       -0.1663
     25 C         140.8463  145.2997  160.5638 C.3     1  UNL1        0.0038
     26 C         141.4575  144.7480  159.3100 C.3     1  UNL1        0.0001
     27 C         141.8587  143.3042  159.2437 C.3     1  UNL1        0.0000
     28 C         141.6674  145.6400  158.1226 C.3     1  UNL1        0.0000
@<TRIPOS>BOND
     1    17    18    1
     2    18     1    1
     3     1     2   ar
     4     2     3   ar
     5     3     4   ar
     6     4     5   ar
     7     5     6   ar
     8     6    19    1
     9    19    20    1
    10    20    21    1
    11    21    22    1
    12    21    23    1
    13    21    24    1
    14     4     7    1
    15     7     8    1
    16     8     9    1
    17     9    10    1
    18    10    11    1
    19    11    25    1
    20    25    26    1
    21    26    27    1
    22    26    28    1
    23    11    12    1
    24    12    13    1
    25    12    14    1
    26    14    15    1
    27     6     1   ar
    28    15     9    1
    29    15     3    1
    30    13    16    1
@<TRIPOS>MOLECULE
*****
 28 30 0 0 0
SMALL
GASTEIGER

@<TRIPOS>ATOM
      1 C         139.8843  140.2631  167.2540 C.ar    1  UNL1        0.1721
      2 C         139.6874  141.1088  166.0309 C.ar    1  UNL1        0.0368
      3 C         140.8138  141.9537  165.5139 C.ar    1  UNL1       -0.0084
      4 C         142.1372  141.9528  166.2199 C.ar    1  UNL1       -0.0203
      5 C         142.3342  141.1071  167.4430 C.ar    1  UNL1        0.0356
      6 C         141.2078  140.2622  167.9600 C.ar    1  UNL1        0.1723
      7 C         143.2637  142.7977  165.7029 C.3     1  UNL1        0.0435
      8 C         143.0667  143.6435  164.4799 C.3     1  UNL1        0.0770
      9 N         141.7432  143.6444  163.7738 N.3     1  UNL1       -0.2699
     10 C         141.5462  144.4901  162.5508 C.3     1  UNL1        0.0747
     11 C         140.2228  144.4910  161.8447 C.3     1  UNL1        0.0429
     12 C         139.0963  143.6462  162.3617 C.3     1  UNL1        0.1135
     13 O         137.7729  143.6470  161.6557 O.3     1  UNL1       -0.3844
     14 C         139.2933  142.8004  163.5848 C.3     1  UNL1        0.0497
     15 C         140.6168  142.7995  164.2908 C.3     1  UNL1        0.0823
     16 H         137.1605  143.0521  162.1160 H       1  UNL1        0.2103
     17 C         137.8751  138.6765  166.8116 C.3     1  UNL1        0.2526
     18 O         138.7579  139.4182  167.7710 O.3     1  UNL1       -0.4684
     19 O         141.4048  139.4164  169.1831 O.3     1  UNL1       -0.4635
     20 C         140.8473  139.8635  170.5019 C.3     1  UNL1        0.3082
     21 C         140.5236  141.3108  170.7275 C.3     1  UNL1        0.4380
     22 F         140.2000  142.7579  170.9531 F       1  UNL1       -0.1663
     23 F         139.0899  141.0450  170.3759 F       1  UNL1       -0.1663
     24 F         141.9574  141.5765  171.0791 F       1  UNL1       -0.1663
     25 C         140.0258  145.3368  160.6217 C.3     1  UNL1        0.0038
     26 C         140.4240  144.8114  159.2743 C.3     1  UNL1        0.0001
     27 C         139.7208  143.6191  158.6964 C.3     1  UNL1        0.0000
     28 C         141.5255  145.4781  158.5049 C.3     1  UNL1        0.0000
@<TRIPOS>BOND
     1    17    18    1
     2    18     1    1
     3     1     2   ar
     4     2     3   ar
     5     3     4   ar
     6     4     5   ar
     7     5     6   ar
     8     6    19    1
     9    19    20    1
    10    20    21    1
    11    21    22    1
    12    21    23    1
    13    21    24    1
    14     4     7    1
    15     7     8    1
    16     8     9    1
    17     9    10    1
    18    10    11    1
    19    11    25    1
    20    25    26    1
    21    26    27    1
    22    26    28    1
    23    11    12    1
    24    12    13    1
    25    12    14    1
    26    14    15    1
    27     6     1   ar
    28    15     9    1
    29    15     3    1
    30    13    16    1
@<TRIPOS>MOLECULE
*****
 28 30 0 0 0
SMALL
GASTEIGER

@<TRIPOS>ATOM
      1 C         142.9467  141.6989  168.1159 C.ar    1  UNL1        0.1721
      2 C         143.2995  142.0730  166.7068 C.ar    1  UNL1        0.0368
      3 C         143.2876  141.0302  165.6286 C.ar    1  UNL1       -0.0084
      4 C         142.9230  139.6134  165.9596 C.ar    1  UNL1       -0.0203
      5 C         142.5702  139.2393  167.3686 C.ar    1  UNL1        0.0356
      6 C         142.5820  140.2821  168.4468 C.ar    1  UNL1        0.1723
      7 C         142.9111  138.5706  164.8814 C.3     1  UNL1        0.0435
      8 C         143.2639  138.9446  163.4723 C.3     1  UNL1        0.0770
      9 N         143.6286  140.3615  163.1413 N.3     1  UNL1       -0.2699
     10 C         143.9814  140.7355  161.7322 C.3     1  UNL1        0.0747
     11 C         144.3461  142.1524  161.4013 C.3     1  UNL1        0.0429
     12 C         144.3580  143.1952  162.4794 C.3     1  UNL1        0.1135
     13 O         144.7227  144.6121  162.1485 O.3     1  UNL1       -0.3844
     14 C         144.0052  142.8211  163.8886 C.3     1  UNL1        0.0497
     15 C         143.6405  141.4043  164.2195 C.3     1  UNL1        0.0823
     16 H         144.6813  145.1529  162.9527 H       1  UNL1        0.2103
     17 C         144.0903  142.7912  170.1772 C.3     1  UNL1        0.2526
     18 O         142.9585  142.7417  169.1941 O.3     1  UNL1       -0.4684
     19 O         142.2292  139.9080  169.8560 O.3     1  UNL1       -0.4635
     20 C         140.7928  139.8788  170.2869 C.3     1  UNL1        0.3082
     21 C         139.9977  141.1500  170.3334 C.3     1  UNL1        0.4380
     22 F         139.2026  142.4210  170.3798 F       1  UNL1       -0.1663
     23 F         140.8545  141.6448  171.4607 F       1  UNL1       -0.1663
     24 F         139.1408  140.6552  169.2060 F       1  UNL1       -0.1663
     25 C         144.6989  142.5265  159.9922 C.3     1  UNL1        0.0038
     26 C         143.6152  142.8694  159.0134 C.3     1  UNL1        0.0001
     27 C         143.7947  142.5598  157.5568 C.3     1  UNL1        0.0000
     28 C         142.3520  143.5218  159.4914 C.3     1  UNL1        0.0000
@<TRIPOS>BOND
     1    17    18    1
     2    18     1    1
     3     1     2   ar
     4     2     3   ar
     5     3     4   ar
     6     4     5   ar
     7     5     6   ar
     8     6    19    1
     9    19    20    1
    10    20    21    1
    11    21    22    1
    12    21    23    1
    13    21    24    1
    14     4     7    1
    15     7     8    1
    16     8     9    1
    17     9    10    1
    18    10    11    1
    19    11    25    1
    20    25    26    1
    21    26    27    1
    22    26    28    1
    23    11    12    1
    24    12    13    1
    25    12    14    1
    26    14    15    1
    27     6     1   ar
    28    15     9    1
    29    15     3    1
    30    13    16    1
@<TRIPOS>MOLECULE
*****
 28 30 0 0 0
SMALL
GASTEIGER

@<TRIPOS>ATOM
      1 C         138.2326  139.2996  168.4689 C.ar    1  UNL1        0.1721
      2 C         139.3070  139.7434  167.5210 C.ar    1  UNL1        0.0368
      3 C         140.3577  140.7113  167.9783 C.ar    1  UNL1       -0.0084
      4 C         140.3340  141.2354  169.3836 C.ar    1  UNL1       -0.0203
      5 C         139.2595  140.7916  170.3315 C.ar    1  UNL1        0.0356
      6 C         138.2088  139.8237  169.8741 C.ar    1  UNL1        0.1723
      7 C         141.3847  142.2033  169.8409 C.3     1  UNL1        0.0435
      8 C         142.4591  142.6471  168.8930 C.3     1  UNL1        0.0770
      9 N         142.4829  142.1230  167.4877 N.3     1  UNL1       -0.2699
     10 C         143.5574  142.5668  166.5398 C.3     1  UNL1        0.0747
     11 C         143.5812  142.0427  165.1345 C.3     1  UNL1        0.0429
     12 C         142.5304  141.0747  164.6772 C.3     1  UNL1        0.1135
     13 O         142.5542  140.5506  163.2719 O.3     1  UNL1       -0.3844
     14 C         141.4560  140.6310  165.6251 C.3     1  UNL1        0.0497
     15 C         141.4322  141.1551  167.0304 C.3     1  UNL1        0.0823
     16 H         141.8112  139.9407  163.1417 H       1  UNL1        0.2103
     17 C         137.4562  137.4187  166.8536 C.3     1  UNL1        0.2526
     18 O         137.1819  138.3317  168.0116 O.3     1  UNL1       -0.4684
     19 O         137.1343  139.3799  170.8221 O.3     1  UNL1       -0.4635
     20 C         137.3227  138.1371  171.6406 C.3     1  UNL1        0.3082
     21 C         136.1492  137.5104  172.3336 C.3     1  UNL1        0.4380
     22 F         134.9757  136.8838  173.0265 F       1  UNL1       -0.1663
     23 F         136.9593  136.2737  172.5870 F       1  UNL1       -0.1663
     24 F         135.3391  138.7471  172.0801 F       1  UNL1       -0.1663
     25 C         144.6556  142.4865  164.1866 C.3     1  UNL1        0.0038
     26 C         144.3446  143.4923  163.1181 C.3     1  UNL1        0.0001
     27 C         144.5668  143.1470  161.6755 C.3     1  UNL1        0.0000
     28 C         143.8113  144.8434  163.4923 C.3     1  UNL1        0.0000
@<TRIPOS>BOND
     1    17    18    1
     2    18     1    1
     3     1     2   ar
     4     2     3   ar
     5     3     4   ar
     6     4     5   ar
     7     5     6   ar
     8     6    19    1
     9    19    20    1
    10    20    21    1
    11    21    22    1
    12    21    23    1
    13    21    24    1
    14     4     7    1
    15     7     8    1
    16     8     9    1
    17     9    10    1
    18    10    11    1
    19    11    25    1
    20    25    26    1
    21    26    27    1
    22    26    28    1
    23    11    12    1
    24    12    13    1
    25    12    14    1
    26    14    15    1
    27     6     1   ar
    28    15     9    1
    29    15     3    1
    30    13    16    1
@<TRIPOS>MOLECULE
*****
 28 30 0 0 0
SMALL
GASTEIGER

@<TRIPOS>ATOM
      1 C         142.3007  140.3948  168.1664 C.ar    1  UNL1        0.1721
      2 C         142.2666  139.8354  166.7750 C.ar    1  UNL1        0.0368
      3 C         142.8363  140.6261  165.6347 C.ar    1  UNL1       -0.0084
      4 C         143.4400  141.9761  165.8857 C.ar    1  UNL1       -0.0203
      5 C         143.4741  142.5354  167.2771 C.ar    1  UNL1        0.0356
      6 C         142.9044  141.7447  168.4174 C.ar    1  UNL1        0.1723
      7 C         144.0097  142.7667  164.7454 C.3     1  UNL1        0.0435
      8 C         143.9756  142.2074  163.3540 C.3     1  UNL1        0.0770
      9 N         143.3719  140.8573  163.1029 N.3     1  UNL1       -0.2699
     10 C         143.3379  140.2980  161.7116 C.3     1  UNL1        0.0747
     11 C         142.7341  138.9480  161.4605 C.3     1  UNL1        0.0429
     12 C         142.1645  138.1573  162.6008 C.3     1  UNL1        0.1135
     13 O         141.5608  136.8074  162.3498 O.3     1  UNL1       -0.3844
     14 C         142.1985  138.7167  163.9922 C.3     1  UNL1        0.0497
     15 C         142.8022  140.0667  164.2433 C.3     1  UNL1        0.0823
     16 H         141.2421  136.4350  163.1868 H       1  UNL1        0.2103
     17 C         142.6320  138.7585  170.1571 C.3     1  UNL1        0.2526
     18 O         141.7310  139.6041  169.3067 O.3     1  UNL1       -0.4684
     19 O         142.9385  142.3041  169.8088 O.3     1  UNL1       -0.4635
     20 C         141.8674  143.2509  170.2630 C.3     1  UNL1        0.3082
     21 C         140.4436  142.7867  170.3502 C.3     1  UNL1        0.4380
     22 F         139.0200  142.3224  170.4374 F       1  UNL1       -0.1663
     23 F         140.0583  143.7678  169.2830 F       1  UNL1       -0.1663
     24 F         140.8290  141.8056  171.4174 F       1  UNL1       -0.1663
     25 C         142.7001  138.3886  160.0691 C.3     1  UNL1        0.0038
     26 C         141.4887  138.5923  159.2083 C.3     1  UNL1        0.0001
     27 C         140.2981  139.3260  159.7506 C.3     1  UNL1        0.0000
     28 C         141.4678  138.0622  157.8053 C.3     1  UNL1        0.0000
@<TRIPOS>BOND
     1    17    18    1
     2    18     1    1
     3     1     2   ar
     4     2     3   ar
     5     3     4   ar
     6     4     5   ar
     7     5     6   ar
     8     6    19    1
     9    19    20    1
    10    20    21    1
    11    21    22    1
    12    21    23    1
    13    21    24    1
    14     4     7    1
    15     7     8    1
    16     8     9    1
    17     9    10    1
    18    10    11    1
    19    11    25    1
    20    25    26    1
    21    26    27    1
    22    26    28    1
    23    11    12    1
    24    12    13    1
    25    12    14    1
    26    14    15    1
    27     6     1   ar
    28    15     9    1
    29    15     3    1
    30    13    16    1
@<TRIPOS>MOLECULE
*****
 28 30 0 0 0
SMALL
GASTEIGER

@<TRIPOS>ATOM
      1 C         139.7175  140.5618  168.4380 C.ar    1  UNL1        0.1721
      2 C         139.4931  140.0964  167.0298 C.ar    1  UNL1        0.0368
      3 C         139.8382  140.9946  165.8791 C.ar    1  UNL1       -0.0084
      4 C         140.4077  142.3582  166.1366 C.ar    1  UNL1       -0.0203
      5 C         140.6321  142.8235  167.5447 C.ar    1  UNL1        0.0356
      6 C         140.2870  141.9253  168.6955 C.ar    1  UNL1        0.1723
      7 C         140.7529  143.2563  164.9858 C.3     1  UNL1        0.0435
      8 C         140.5285  142.7910  163.5776 C.3     1  UNL1        0.0770
      9 N         139.9589  141.4274  163.3201 N.3     1  UNL1       -0.2699
     10 C         139.7345  140.9620  161.9119 C.3     1  UNL1        0.0747
     11 C         139.1649  139.5984  161.6544 C.3     1  UNL1        0.0429
     12 C         138.8198  138.7002  162.8051 C.3     1  UNL1        0.1135
     13 O         138.2502  137.3367  162.5477 O.3     1  UNL1       -0.3844
     14 C         139.0442  139.1656  164.2134 C.3     1  UNL1        0.0497
     15 C         139.6138  140.5292  164.4709 C.3     1  UNL1        0.0823
     16 H         138.0850  136.8904  163.3929 H       1  UNL1        0.2103
     17 C         138.0680  139.8353  170.3091 C.3     1  UNL1        0.2526
     18 O         139.3724  139.6636  169.5887 O.3     1  UNL1       -0.4684
     19 O         140.5115  142.3908  170.1037 O.3     1  UNL1       -0.4635
     20 C         141.7604  141.9954  170.8342 C.3     1  UNL1        0.3082
     21 C         143.1042  142.2874  170.2349 C.3     1  UNL1        0.4380
     22 F         144.4479  142.5794  169.6356 F       1  UNL1       -0.1663
     23 F         143.2253  140.8545  169.8082 F       1  UNL1       -0.1663
     24 F         142.9831  143.7203  170.6615 F       1  UNL1       -0.1663
     25 C         138.9405  139.1330  160.2462 C.3     1  UNL1        0.0038
     26 C         139.9823  139.3871  159.1974 C.3     1  UNL1        0.0001
     27 C         141.2730  138.6233  159.2217 C.3     1  UNL1        0.0000
     28 C         139.7333  140.4050  158.1241 C.3     1  UNL1        0.0000
@<TRIPOS>BOND
     1    17    18    1
     2    18     1    1
     3     1     2   ar
     4     2     3   ar
     5     3     4   ar
     6     4     5   ar
     7     5     6   ar
     8     6    19    1
     9    19    20    1
    10    20    21    1
    11    21    22    1
    12    21    23    1
    13    21    24    1
    14     4     7    1
    15     7     8    1
    16     8     9    1
    17     9    10    1
    18    10    11    1
    19    11    25    1
    20    25    26    1
    21    26    27    1
    22    26    28    1
    23    11    12    1
    24    12    13    1
    25    12    14    1
    26    14    15    1
    27     6     1   ar
    28    15     9    1
    29    15     3    1
    30    13    16    1
@<TRIPOS>MOLECULE
*****
 28 30 0 0 0
SMALL
GASTEIGER

@<TRIPOS>ATOM
      1 C         142.0454  141.4263  165.7462 C.ar    1  UNL1        0.1721
      2 C         142.1055  142.0518  164.3841 C.ar    1  UNL1        0.0368
      3 C         141.1155  143.1115  164.0011 C.ar    1  UNL1       -0.0084
      4 C         140.0654  143.5459  164.9801 C.ar    1  UNL1       -0.0203
      5 C         140.0053  142.9205  166.3421 C.ar    1  UNL1        0.0356
      6 C         140.9953  141.8607  166.7252 C.ar    1  UNL1        0.1723
      7 C         139.0754  144.6057  164.5971 C.3     1  UNL1        0.0435
      8 C         139.1355  145.2311  163.2350 C.3     1  UNL1        0.0770
      9 N         140.1857  144.7967  162.2559 N.3     1  UNL1       -0.2699
     10 C         140.2458  145.4222  160.8939 C.3     1  UNL1        0.0747
     11 C         141.2960  144.9878  159.9148 C.3     1  UNL1        0.0429
     12 C         142.2860  143.9280  160.2979 C.3     1  UNL1        0.1135
     13 O         143.3361  143.4937  159.3189 O.3     1  UNL1       -0.3844
     14 C         142.2258  143.3026  161.6600 C.3     1  UNL1        0.0497
     15 C         141.1757  143.7370  162.6390 C.3     1  UNL1        0.0823
     16 H         143.8898  142.8068  159.7221 H       1  UNL1        0.2103
     17 C         142.6772  138.9174  165.9827 C.3     1  UNL1        0.2526
     18 O         143.0354  140.3666  166.1292 O.3     1  UNL1       -0.4684
     19 O         140.9351  141.2353  168.0873 O.3     1  UNL1       -0.4635
     20 C         141.3986  142.0061  169.2877 C.3     1  UNL1        0.3082
     21 C         140.4276  142.8529  170.0561 C.3     1  UNL1        0.4380
     22 F         139.4567  143.6995  170.8244 F       1  UNL1       -0.1663
     23 F         141.4271  143.9709  170.0871 F       1  UNL1       -0.1663
     24 F         139.4281  141.7348  170.0250 F       1  UNL1       -0.1663
     25 C         141.3561  145.6132  158.5528 C.3     1  UNL1        0.0038
     26 C         140.2918  145.3094  157.5403 C.3     1  UNL1        0.0001
     27 C         139.8218  146.3809  156.6018 C.3     1  UNL1        0.0000
     28 C         139.6976  143.9341  157.4665 C.3     1  UNL1        0.0000
@<TRIPOS>BOND
     1    17    18    1
     2    18     1    1
     3     1     2   ar
     4     2     3   ar
     5     3     4   ar
     6     4     5   ar
     7     5     6   ar
     8     6    19    1
     9    19    20    1
    10    20    21    1
    11    21    22    1
    12    21    23    1
    13    21    24    1
    14     4     7    1
    15     7     8    1
    16     8     9    1
    17     9    10    1
    18    10    11    1
    19    11    25    1
    20    25    26    1
    21    26    27    1
    22    26    28    1
    23    11    12    1
    24    12    13    1
    25    12    14    1
    26    14    15    1
    27     6     1   ar
    28    15     9    1
    29    15     3    1
    30    13    16    1
