@<TRIPOS>MOLECULE
*****
 26 29 0 0 0
SMALL
GASTEIGER

@<TRIPOS>ATOM
      1 C         143.0876  141.1938  163.0591 C.2     1  UNL1        0.1571
      2 N         143.9064  140.1601  162.3442 N.2     1  UNL1       -0.1436
      3 N         144.2160  139.0605  163.3163 N.2     1  UNL1       -0.1519
      4 C         143.5886  139.4146  164.6320 C.2     1  UNL1        0.0865
      5 C         143.5623  138.7068  165.9542 C.3     1  UNL1        0.0736
      6 C         142.8386  139.3175  167.1175 C.2     1  UNL1       -0.0196
      7 C         142.1411  140.6360  166.9585 C.2     1  UNL1       -0.0016
      8 C         142.1675  141.3437  165.6363 C.2     1  UNL1        0.0027
      9 C         142.8912  140.7331  164.4730 C.2     1  UNL1        0.0395
     10 C         141.4174  141.2466  168.1218 C.ar    1  UNL1        0.0294
     11 C         141.9748  142.4650  168.7962 C.ar    1  UNL1        0.0024
     12 C         141.2510  143.0757  169.9595 C.ar    1  UNL1        0.0025
     13 C         139.9698  142.4679  170.4485 C.ar    1  UNL1        0.0320
     14 C         139.4123  141.2495  169.7741 C.ar    1  UNL1        0.1674
     15 F         138.1311  140.6417  170.2630 F       1  UNL1       -0.2018
     16 C         140.1361  140.6389  168.6108 C.ar    1  UNL1        0.1673
     17 F         139.5787  139.4204  167.9364 F       1  UNL1       -0.2018
     18 O         143.4952  143.4300  161.8009 O.2     1  UNL1       -0.2684
     19 C         142.5581  142.4651  162.4645 C.2     1  UNL1        0.2654
     20 N         141.0912  142.7714  162.5335 N.am    1  UNL1       -0.2986
     21 H         140.4761  142.1380  162.9690 H       1  UNL1        0.1498
     22 C         140.5617  144.0426  161.9389 C.3     1  UNL1        0.1039
     23 C         140.2467  145.3027  162.6893 C.3     1  UNL1        0.0542
     24 C         139.7446  146.3158  161.7037 C.3     1  UNL1        0.1440
     25 O         139.7493  145.6819  160.3442 O.3     1  UNL1       -0.3520
     26 C         140.2544  144.2770  160.4896 C.3     1  UNL1        0.1616
@<TRIPOS>BOND
     1    18    19    2
     2    19    20   am
     3    20    22    1
     4    22    23    1
     5    23    24    1
     6    24    25    1
     7    25    26    1
     8    19     1    1
     9     1     2    2
    10     2     3    1
    11     3     4    2
    12     4     5    1
    13     5     6    1
    14     6     7    2
    15     7    10    1
    16    10    11   ar
    17    11    12   ar
    18    12    13   ar
    19    13    14   ar
    20    14    15    1
    21    14    16   ar
    22    16    17    1
    23     7     8    1
    24     8     9    2
    25    26    22    1
    26     9     1    1
    27     9     4    1
    28    16    10   ar
    29    20    21    1
@<TRIPOS>MOLECULE
*****
 26 29 0 0 0
SMALL
GASTEIGER

@<TRIPOS>ATOM
      1 C         140.7118  138.7434  163.8294 C.2     1  UNL1        0.1571
      2 N         139.7881  137.8681  163.0353 N.2     1  UNL1       -0.1436
      3 N         138.5849  137.5755  163.8819 N.2     1  UNL1       -0.1519
      4 C         138.7650  138.2699  165.1992 C.2     1  UNL1        0.0865
      5 C         137.9018  138.3383  166.4240 C.3     1  UNL1        0.0736
      6 C         138.3532  139.1284  167.6164 C.2     1  UNL1       -0.0196
      7 C         139.6677  139.8502  167.5840 C.2     1  UNL1       -0.0016
      8 C         140.5308  139.7819  166.3592 C.2     1  UNL1        0.0027
      9 C         140.0795  138.9917  165.1668 C.2     1  UNL1        0.0395
     10 C         140.1190  140.6404  168.7765 C.ar    1  UNL1        0.0294
     11 C         140.4357  139.9397  170.0644 C.ar    1  UNL1        0.0024
     12 C         140.8871  140.7299  171.2569 C.ar    1  UNL1        0.0025
     13 C         141.0217  142.2208  171.1614 C.ar    1  UNL1        0.0320
     14 C         140.7049  142.9215  169.8735 C.ar    1  UNL1        0.1674
     15 F         140.8395  144.4124  169.7780 F       1  UNL1       -0.2018
     16 C         140.2536  142.1313  168.6811 C.ar    1  UNL1        0.1673
     17 F         139.9369  142.8320  167.3931 F       1  UNL1       -0.2018
     18 O         143.0511  138.3483  162.7705 O.2     1  UNL1       -0.2684
     19 C         142.0354  139.2767  163.3674 C.2     1  UNL1        0.2654
     20 N         142.3434  140.7386  163.5021 N.am    1  UNL1       -0.2986
     21 H         141.6768  141.3480  163.8938 H       1  UNL1        0.1498
     22 C         143.6671  141.2719  163.0401 C.3     1  UNL1        0.1039
     23 C         143.9004  142.1196  161.8247 C.3     1  UNL1        0.0542
     24 C         145.3673  142.4228  161.7457 C.3     1  UNL1        0.1440
     25 O         146.0405  141.7625  162.9122 O.3     1  UNL1       -0.3520
     26 C         144.9898  141.0513  163.7122 C.3     1  UNL1        0.1616
@<TRIPOS>BOND
     1    18    19    2
     2    19    20   am
     3    20    22    1
     4    22    23    1
     5    23    24    1
     6    24    25    1
     7    25    26    1
     8    19     1    1
     9     1     2    2
    10     2     3    1
    11     3     4    2
    12     4     5    1
    13     5     6    1
    14     6     7    2
    15     7    10    1
    16    10    11   ar
    17    11    12   ar
    18    12    13   ar
    19    13    14   ar
    20    14    15    1
    21    14    16   ar
    22    16    17    1
    23     7     8    1
    24     8     9    2
    25    26    22    1
    26     9     1    1
    27     9     4    1
    28    16    10   ar
    29    20    21    1
@<TRIPOS>MOLECULE
*****
 26 29 0 0 0
SMALL
GASTEIGER

@<TRIPOS>ATOM
      1 C         142.9982  141.0040  162.9493 C.2     1  UNL1        0.1571
      2 N         143.6978  139.9334  162.1654 N.2     1  UNL1       -0.1436
      3 N         144.0120  138.8041  163.1013 N.2     1  UNL1       -0.1519
      4 C         143.5067  139.1768  164.4636 C.2     1  UNL1        0.0865
      5 C         143.5362  138.4537  165.7775 C.3     1  UNL1        0.0736
      6 C         142.9391  139.0903  166.9974 C.2     1  UNL1       -0.0196
      7 C         142.3125  140.4499  166.9034 C.2     1  UNL1       -0.0016
      8 C         142.2830  141.1730  165.5895 C.2     1  UNL1        0.0027
      9 C         142.8801  140.5364  164.3696 C.2     1  UNL1        0.0395
     10 C         141.7153  141.0865  168.1234 C.ar    1  UNL1        0.0294
     11 C         140.3844  140.6223  168.6363 C.ar    1  UNL1        0.0024
     12 C         139.7873  141.2589  169.8563 C.ar    1  UNL1        0.0025
     13 C         140.5212  142.3596  170.5633 C.ar    1  UNL1        0.0320
     14 C         141.8521  142.8238  170.0503 C.ar    1  UNL1        0.1674
     15 F         142.5860  143.9245  170.7572 F       1  UNL1       -0.2018
     16 C         142.4492  142.1872  168.8304 C.ar    1  UNL1        0.1673
     17 F         143.7802  142.6514  168.3173 F       1  UNL1       -0.2018
     18 O         143.4812  143.3391  161.9179 O.2     1  UNL1       -0.2684
     19 C         142.5036  142.3125  162.4079 C.2     1  UNL1        0.2654
     20 N         141.0311  142.5944  162.3565 N.am    1  UNL1       -0.2986
     21 H         140.3894  141.9206  162.6781 H       1  UNL1        0.1498
     22 C         140.5364  143.9029  161.8150 C.3     1  UNL1        0.1039
     23 C         140.3125  145.1568  162.6074 C.3     1  UNL1        0.0542
     24 C         139.8166  146.2161  161.6683 C.3     1  UNL1        0.1440
     25 O         139.7340  145.6169  160.2956 O.3     1  UNL1       -0.3520
     26 C         140.1789  144.1873  160.3863 C.3     1  UNL1        0.1616
@<TRIPOS>BOND
     1    18    19    2
     2    19    20   am
     3    20    22    1
     4    22    23    1
     5    23    24    1
     6    24    25    1
     7    25    26    1
     8    19     1    1
     9     1     2    2
    10     2     3    1
    11     3     4    2
    12     4     5    1
    13     5     6    1
    14     6     7    2
    15     7    10    1
    16    10    11   ar
    17    11    12   ar
    18    12    13   ar
    19    13    14   ar
    20    14    15    1
    21    14    16   ar
    22    16    17    1
    23     7     8    1
    24     8     9    2
    25    26    22    1
    26     9     1    1
    27     9     4    1
    28    16    10   ar
    29    20    21    1
@<TRIPOS>MOLECULE
*****
 26 29 0 0 0
SMALL
GASTEIGER

@<TRIPOS>ATOM
      1 C         141.9974  143.3271  162.2842 C.2     1  UNL1        0.1571
      2 N         142.9740  144.2202  161.5782 N.2     1  UNL1       -0.1436
      3 N         144.0725  144.5591  162.5418 N.2     1  UNL1       -0.1519
      4 C         143.7747  143.8755  163.8433 C.2     1  UNL1        0.0865
      5 C         144.5056  143.8480  165.1529 C.3     1  UNL1        0.0736
      6 C         143.9540  143.0591  166.3032 C.2     1  UNL1       -0.0196
      7 C         142.6715  142.2976  166.1440 C.2     1  UNL1       -0.0016
      8 C         141.9406  142.3251  164.8345 C.2     1  UNL1        0.0027
      9 C         142.4922  143.1141  163.6841 C.2     1  UNL1        0.0395
     10 C         142.1200  141.5087  167.2944 C.ar    1  UNL1        0.0294
     11 C         142.7633  140.2134  167.6925 C.ar    1  UNL1        0.0024
     12 C         142.2117  139.4245  168.8429 C.ar    1  UNL1        0.0025
     13 C         141.0169  139.9308  169.5952 C.ar    1  UNL1        0.0320
     14 C         140.3735  141.2261  169.1971 C.ar    1  UNL1        0.1674
     15 F         139.1787  141.7324  169.9493 F       1  UNL1       -0.2018
     16 C         140.9251  142.0150  168.0467 C.ar    1  UNL1        0.1673
     17 F         140.2818  143.3103  167.6486 F       1  UNL1       -0.2018
     18 O         139.5300  143.6101  161.5213 O.2     1  UNL1       -0.2684
     19 C         140.7456  142.7485  161.6939 C.2     1  UNL1        0.2654
     20 N         140.7095  141.3082  161.2763 N.am    1  UNL1       -0.2986
     21 H         141.5073  140.7427  161.3896 H       1  UNL1        0.1498
     22 C         139.4577  140.7297  160.6860 C.3     1  UNL1        0.1039
     23 C         138.3068  140.1504  161.4540 C.3     1  UNL1        0.0542
     24 C         137.2749  139.6915  160.4668 C.3     1  UNL1        0.1440
     25 O         137.7881  139.9872  159.0887 O.3     1  UNL1       -0.3520
     26 C         139.1371  140.6288  159.2241 C.3     1  UNL1        0.1616
@<TRIPOS>BOND
     1    18    19    2
     2    19    20   am
     3    20    22    1
     4    22    23    1
     5    23    24    1
     6    24    25    1
     7    25    26    1
     8    19     1    1
     9     1     2    2
    10     2     3    1
    11     3     4    2
    12     4     5    1
    13     5     6    1
    14     6     7    2
    15     7    10    1
    16    10    11   ar
    17    11    12   ar
    18    12    13   ar
    19    13    14   ar
    20    14    15    1
    21    14    16   ar
    22    16    17    1
    23     7     8    1
    24     8     9    2
    25    26    22    1
    26     9     1    1
    27     9     4    1
    28    16    10   ar
    29    20    21    1
@<TRIPOS>MOLECULE
*****
 26 29 0 0 0
SMALL
GASTEIGER

@<TRIPOS>ATOM
      1 C         139.0707  139.3858  167.6482 C.2     1  UNL1        0.1571
      2 N         137.7677  138.6969  167.9268 N.2     1  UNL1       -0.1436
      3 N         137.3668  137.9464  166.6914 N.2     1  UNL1       -0.1519
      4 C         138.4220  138.1714  165.6494 C.2     1  UNL1        0.0865
      5 C         138.5601  137.6812  164.2385 C.3     1  UNL1        0.0736
      6 C         139.7511  138.0807  163.4189 C.2     1  UNL1       -0.0196
      7 C         140.8042  138.9703  164.0102 C.2     1  UNL1       -0.0016
      8 C         140.6662  139.4605  165.4211 C.2     1  UNL1        0.0027
      9 C         139.4751  139.0610  166.2407 C.2     1  UNL1        0.0395
     10 C         141.9953  139.3697  163.1906 C.ar    1  UNL1        0.0294
     11 C         142.9303  138.3208  162.6656 C.ar    1  UNL1        0.0024
     12 C         144.1214  138.7203  161.8459 C.ar    1  UNL1        0.0025
     13 C         144.3775  140.1686  161.5513 C.ar    1  UNL1        0.0320
     14 C         143.4425  141.2175  162.0764 C.ar    1  UNL1        0.1674
     15 F         143.6986  142.6658  161.7818 F       1  UNL1       -0.2018
     16 C         142.2514  140.8180  162.8960 C.ar    1  UNL1        0.1673
     17 F         141.3164  141.8669  163.4210 F       1  UNL1       -0.2018
     18 O         139.9066  139.8738  170.0592 O.2     1  UNL1       -0.2684
     19 C         139.8351  140.2480  168.6085 C.2     1  UNL1        0.2654
     20 N         140.5282  141.4847  168.1179 N.am    1  UNL1       -0.2986
     21 H         140.4813  141.7304  167.1657 H       1  UNL1        0.1498
     22 C         141.2926  142.3470  169.0782 C.3     1  UNL1        0.1039
     23 C         142.6930  142.1048  169.5580 C.3     1  UNL1        0.0542
     24 C         143.0567  143.2109  170.5036 C.3     1  UNL1        0.1440
     25 O         141.8811  144.1367  170.6083 O.3     1  UNL1       -0.3520
     26 C         140.7908  143.6027  169.7273 C.3     1  UNL1        0.1616
@<TRIPOS>BOND
     1    18    19    2
     2    19    20   am
     3    20    22    1
     4    22    23    1
     5    23    24    1
     6    24    25    1
     7    25    26    1
     8    19     1    1
     9     1     2    2
    10     2     3    1
    11     3     4    2
    12     4     5    1
    13     5     6    1
    14     6     7    2
    15     7    10    1
    16    10    11   ar
    17    11    12   ar
    18    12    13   ar
    19    13    14   ar
    20    14    15    1
    21    14    16   ar
    22    16    17    1
    23     7     8    1
    24     8     9    2
    25    26    22    1
    26     9     1    1
    27     9     4    1
    28    16    10   ar
    29    20    21    1
@<TRIPOS>MOLECULE
*****
 26 29 0 0 0
SMALL
GASTEIGER

@<TRIPOS>ATOM
      1 C         142.9634  143.9898  162.4170 C.2     1  UNL1        0.1571
      2 N         143.9613  144.9882  162.9244 N.2     1  UNL1       -0.1436
      3 N         144.2643  144.6547  164.3551 N.2     1  UNL1       -0.1519
      4 C         143.4537  143.4501  164.7320 C.2     1  UNL1        0.0865
      5 C         143.3438  142.6744  166.0111 C.3     1  UNL1        0.0736
      6 C         142.4299  141.4878  166.0924 C.2     1  UNL1       -0.0196
      7 C         141.6259  141.0769  164.8946 C.2     1  UNL1       -0.0016
      8 C         141.7358  141.8526  163.6155 C.2     1  UNL1        0.0027
      9 C         142.6497  143.0392  163.5342 C.2     1  UNL1        0.0395
     10 C         140.7120  139.8902  164.9760 C.ar    1  UNL1        0.0294
     11 C         141.0125  138.6560  164.1783 C.ar    1  UNL1        0.0024
     12 C         140.0986  137.4693  164.2597 C.ar    1  UNL1        0.0025
     13 C         138.8841  137.5168  165.1388 C.ar    1  UNL1        0.0320
     14 C         138.5836  138.7511  165.9365 C.ar    1  UNL1        0.1674
     15 F         137.3691  138.7987  166.8156 F       1  UNL1       -0.2018
     16 C         139.4975  139.9378  165.8551 C.ar    1  UNL1        0.1673
     17 F         139.1970  141.1721  166.6528 F       1  UNL1       -0.2018
     18 O         142.3901  142.6679  160.2551 O.2     1  UNL1       -0.2684
     19 C         142.3814  143.9490  161.0352 C.2     1  UNL1        0.2654
     20 N         141.7907  145.1896  160.4333 N.am    1  UNL1       -0.2986
     21 H         141.7850  146.0305  160.9452 H       1  UNL1        0.1498
     22 C         141.2087  145.1488  159.0514 C.3     1  UNL1        0.1039
     23 C         141.7894  145.7989  157.8306 C.3     1  UNL1        0.0542
     24 C         140.8834  145.5027  156.6724 C.3     1  UNL1        0.1440
     25 O         139.7428  144.6697  157.1773 O.3     1  UNL1       -0.3520
     26 C         139.9438  144.4509  158.6476 C.3     1  UNL1        0.1616
@<TRIPOS>BOND
     1    18    19    2
     2    19    20   am
     3    20    22    1
     4    22    23    1
     5    23    24    1
     6    24    25    1
     7    25    26    1
     8    19     1    1
     9     1     2    2
    10     2     3    1
    11     3     4    2
    12     4     5    1
    13     5     6    1
    14     6     7    2
    15     7    10    1
    16    10    11   ar
    17    11    12   ar
    18    12    13   ar
    19    13    14   ar
    20    14    15    1
    21    14    16   ar
    22    16    17    1
    23     7     8    1
    24     8     9    2
    25    26    22    1
    26     9     1    1
    27     9     4    1
    28    16    10   ar
    29    20    21    1
@<TRIPOS>MOLECULE
*****
 26 29 0 0 0
SMALL
GASTEIGER

@<TRIPOS>ATOM
      1 C         140.6978  139.0323  163.2687 C.2     1  UNL1        0.1571
      2 N         139.7177  138.0238  162.7469 N.2     1  UNL1       -0.1436
      3 N         138.7289  137.7317  163.8365 N.2     1  UNL1       -0.1519
      4 C         139.0980  138.5597  165.0316 C.2     1  UNL1        0.0865
      5 C         138.4832  138.6856  166.3940 C.3     1  UNL1        0.0736
      6 C         139.0853  139.6153  167.4054 C.2     1  UNL1       -0.0196
      7 C         140.3021  140.4191  167.0545 C.2     1  UNL1       -0.0016
      8 C         140.9169  140.2933  165.6921 C.2     1  UNL1        0.0027
      9 C         140.3148  139.3636  164.6806 C.2     1  UNL1        0.0395
     10 C         140.9042  141.3489  168.0660 C.ar    1  UNL1        0.0294
     11 C         140.1218  142.5302  168.5582 C.ar    1  UNL1        0.0024
     12 C         140.7239  143.4599  169.5697 C.ar    1  UNL1        0.0025
     13 C         142.1084  143.2083  170.0891 C.ar    1  UNL1        0.0320
     14 C         142.8909  142.0269  169.5969 C.ar    1  UNL1        0.1674
     15 F         144.2754  141.7753  170.1162 F       1  UNL1       -0.2018
     16 C         142.2888  141.0972  168.5854 C.ar    1  UNL1        0.1673
     17 F         143.0712  139.9159  168.0932 F       1  UNL1       -0.2018
     18 O         143.1043  138.7976  162.3180 O.2     1  UNL1       -0.2684
     19 C         141.8573  139.6085  162.5114 C.2     1  UNL1        0.2654
     20 N         141.7699  140.9958  161.9474 N.am    1  UNL1       -0.2986
     21 H         140.9515  141.5281  162.0743 H       1  UNL1        0.1498
     22 C         142.9295  141.5719  161.1901 C.3     1  UNL1        0.1039
     23 C         143.0581  141.6465  159.6975 C.3     1  UNL1        0.0542
     24 C         144.3721  142.2953  159.3774 C.3     1  UNL1        0.1440
     25 O         145.0555  142.6218  160.6721 O.3     1  UNL1       -0.3520
     26 C         144.1639  142.1747  161.7925 C.3     1  UNL1        0.1616
@<TRIPOS>BOND
     1    18    19    2
     2    19    20   am
     3    20    22    1
     4    22    23    1
     5    23    24    1
     6    24    25    1
     7    25    26    1
     8    19     1    1
     9     1     2    2
    10     2     3    1
    11     3     4    2
    12     4     5    1
    13     5     6    1
    14     6     7    2
    15     7    10    1
    16    10    11   ar
    17    11    12   ar
    18    12    13   ar
    19    13    14   ar
    20    14    15    1
    21    14    16   ar
    22    16    17    1
    23     7     8    1
    24     8     9    2
    25    26    22    1
    26     9     1    1
    27     9     4    1
    28    16    10   ar
    29    20    21    1
@<TRIPOS>MOLECULE
*****
 26 29 0 0 0
SMALL
GASTEIGER

@<TRIPOS>ATOM
      1 C         139.2194  141.1939  163.1976 C.2     1  UNL1        0.1571
      2 N         138.4154  140.0645  162.6249 N.2     1  UNL1       -0.1436
      3 N         138.1204  139.0971  163.7327 N.2     1  UNL1       -0.1519
      4 C         138.7421  139.6287  164.9900 C.2     1  UNL1        0.0865
      5 C         138.7775  139.1001  166.3934 C.3     1  UNL1        0.0736
      6 C         139.4921  139.8674  167.4660 C.2     1  UNL1       -0.0196
      7 C         140.1713  141.1633  167.1353 C.2     1  UNL1       -0.0016
      8 C         140.1359  141.6919  165.7320 C.2     1  UNL1        0.0027
      9 C         139.4213  140.9245  164.6593 C.2     1  UNL1        0.0395
     10 C         140.8859  141.9306  168.2080 C.ar    1  UNL1        0.0294
     11 C         140.1851  143.0455  168.9261 C.ar    1  UNL1        0.0024
     12 C         140.8997  143.8129  169.9988 C.ar    1  UNL1        0.0025
     13 C         142.3151  143.4652  170.3533 C.ar    1  UNL1        0.0320
     14 C         143.0160  142.3502  169.6351 C.ar    1  UNL1        0.1674
     15 F         144.4314  142.0026  169.9896 F       1  UNL1       -0.2018
     16 C         142.3013  141.5830  168.5625 C.ar    1  UNL1        0.1673
     17 F         143.0022  140.4680  167.8443 F       1  UNL1       -0.2018
     18 O         139.7960  143.7256  163.1085 O.2     1  UNL1       -0.2684
     19 C         139.7315  142.3837  162.4414 C.2     1  UNL1        0.2654
     20 N         140.1793  142.2317  161.0178 N.am    1  UNL1       -0.2986
     21 H         140.1371  141.3510  160.5798 H       1  UNL1        0.1498
     22 C         140.6915  143.4216  160.2615 C.3     1  UNL1        0.1039
     23 C         139.9238  144.2212  159.2510 C.3     1  UNL1        0.0542
     24 C         140.8191  145.3146  158.7479 C.3     1  UNL1        0.1440
     25 O         142.1401  145.1907  159.4476 O.3     1  UNL1       -0.3520
     26 C         142.0613  144.0207  160.3831 C.3     1  UNL1        0.1616
@<TRIPOS>BOND
     1    18    19    2
     2    19    20   am
     3    20    22    1
     4    22    23    1
     5    23    24    1
     6    24    25    1
     7    25    26    1
     8    19     1    1
     9     1     2    2
    10     2     3    1
    11     3     4    2
    12     4     5    1
    13     5     6    1
    14     6     7    2
    15     7    10    1
    16    10    11   ar
    17    11    12   ar
    18    12    13   ar
    19    13    14   ar
    20    14    15    1
    21    14    16   ar
    22    16    17    1
    23     7     8    1
    24     8     9    2
    25    26    22    1
    26     9     1    1
    27     9     4    1
    28    16    10   ar
    29    20    21    1
@<TRIPOS>MOLECULE
*****
 26 29 0 0 0
SMALL
GASTEIGER

@<TRIPOS>ATOM
      1 C         139.3391  139.6064  167.5880 C.2     1  UNL1        0.1571
      2 N         138.0479  138.9123  167.9057 N.2     1  UNL1       -0.1436
      3 N         137.5076  138.3328  166.6320 N.2     1  UNL1       -0.1519
      4 C         138.4649  138.6687  165.5271 C.2     1  UNL1        0.0865
      5 C         138.4521  138.3595  164.0594 C.3     1  UNL1        0.0736
      6 C         139.5712  138.8375  163.1826 C.2     1  UNL1       -0.0196
      7 C         140.7031  139.6247  163.7734 C.2     1  UNL1       -0.0016
      8 C         140.7159  139.9339  165.2411 C.2     1  UNL1        0.0027
      9 C         139.5968  139.4559  166.1180 C.2     1  UNL1        0.0395
     10 C         141.8223  140.1027  162.8964 C.ar    1  UNL1        0.0294
     11 C         142.0330  141.5725  162.6835 C.ar    1  UNL1        0.0024
     12 C         143.1522  142.0505  161.8065 C.ar    1  UNL1        0.0025
     13 C         144.0607  141.0587  161.1425 C.ar    1  UNL1        0.0320
     14 C         143.8500  139.5888  161.3554 C.ar    1  UNL1        0.1674
     15 F         144.7585  138.5970  160.6914 F       1  UNL1       -0.2018
     16 C         142.7308  139.1109  162.2324 C.ar    1  UNL1        0.1673
     17 F         142.5201  137.6411  162.4453 F       1  UNL1       -0.2018
     18 O         140.4203  139.7653  169.9450 O.2     1  UNL1       -0.2684
     19 C         140.2182  140.3250  168.5682 C.2     1  UNL1        0.2654
     20 N         140.8954  141.6034  168.1714 N.am    1  UNL1       -0.2986
     21 H         140.7628  141.9708  167.2677 H       1  UNL1        0.1498
     22 C         141.7746  142.3219  169.1516 C.3     1  UNL1        0.1039
     23 C         143.2394  142.0792  169.3649 C.3     1  UNL1        0.0542
     24 C         143.7134  143.0166  170.4357 C.3     1  UNL1        0.1440
     25 O         142.5416  143.8386  170.8841 O.3     1  UNL1       -0.3520
     26 C         141.3433  143.4093  170.0905 C.3     1  UNL1        0.1616
@<TRIPOS>BOND
     1    18    19    2
     2    19    20   am
     3    20    22    1
     4    22    23    1
     5    23    24    1
     6    24    25    1
     7    25    26    1
     8    19     1    1
     9     1     2    2
    10     2     3    1
    11     3     4    2
    12     4     5    1
    13     5     6    1
    14     6     7    2
    15     7    10    1
    16    10    11   ar
    17    11    12   ar
    18    12    13   ar
    19    13    14   ar
    20    14    15    1
    21    14    16   ar
    22    16    17    1
    23     7     8    1
    24     8     9    2
    25    26    22    1
    26     9     1    1
    27     9     4    1
    28    16    10   ar
    29    20    21    1
