@<TRIPOS>MOLECULE
*****
 35 39 0 0 0
SMALL
GASTEIGER

@<TRIPOS>ATOM
      1 C         142.7343  138.7556  169.4548 C.3     1  UNL1        0.1122
      2 N         142.2838  139.8410  168.5226 N.pl3   1  UNL1       -0.3046
      3 C         142.6565  139.6571  167.0813 C.3     1  UNL1        0.1070
      4 C         142.3575  140.5536  165.9164 C.3     1  UNL1        0.0819
      5 N         141.6122  141.8553  165.9050 N.3     1  UNL1       -0.2695
      6 C         140.9817  142.5819  167.0558 C.3     1  UNL1        0.1004
      7 C         140.9408  142.1865  168.5022 C.ar    1  UNL1        0.0072
      8 C         140.2055  143.2008  169.3271 C.ar    1  UNL1       -0.0017
      9 C         140.0498  142.9953  170.8047 C.ar    1  UNL1       -0.0002
     10 C         140.6292  141.7754  171.4575 C.ar    1  UNL1        0.0012
     11 C         141.3645  140.7611  170.6326 C.ar    1  UNL1        0.0142
     12 C         141.5203  140.9666  169.1550 C.ar    1  UNL1        0.0452
     13 C         141.4799  142.5178  164.5658 C.3     1  UNL1        0.0612
     14 C         140.1724  142.4715  163.8320 C.3     1  UNL1        0.0375
     15 C         140.0402  143.1341  162.4928 C.3     1  UNL1        0.0950
     16 N         141.2153  143.8430  161.8874 N.pl3   1  UNL1       -0.2784
     17 C         142.5228  143.8893  162.6212 C.3     1  UNL1        0.0950
     18 C         142.6551  143.2267  163.9604 C.3     1  UNL1        0.0375
     19 C         141.0830  144.5056  160.5482 C.ar    1  UNL1        0.2194
     20 N         139.8017  144.7469  159.8066 N.ar    1  UNL1       -0.1117
     21 N         140.1356  145.4336  158.5156 N.ar    1  UNL1       -0.1121
     22 C         141.6233  145.6167  158.4592 C.ar    1  UNL1        0.2131
     23 N         142.3907  146.2604  157.3426 N.pl3   1  UNL1       -0.3277
     24 N         142.2089  145.0431  159.7154 N.ar    1  UNL1       -0.2979
     25 H         141.9141  146.6088  156.5546 H       1  UNL1        0.1451
     26 H         143.3708  146.3344  157.3976 H       1  UNL1        0.1451
     27 H         143.1643  145.0230  159.9519 H       1  UNL1        0.1713
     28 C         142.8720  140.0866  164.5870 C.3     1  UNL1        0.0440
     29 C         141.9183  139.5556  163.5582 C.ar    1  UNL1       -0.0207
     30 C         140.7627  138.6968  163.9791 C.ar    1  UNL1       -0.0034
     31 C         139.8091  138.1658  162.9503 C.ar    1  UNL1        0.0111
     32 C         140.0109  138.4936  161.5005 C.ar    1  UNL1        0.0577
     33 CL        139.0571  137.9625  160.4717 Cl      1  UNL1       -0.0822
     34 C         141.1664  139.3524  161.0796 C.ar    1  UNL1        0.0111
     35 C         142.1201  139.8834  162.1084 C.ar    1  UNL1       -0.0034
@<TRIPOS>BOND
     1     1     2    1
     2     2     3    1
     3     3     4    1
     4     4    28    1
     5    28    29    1
     6    29    30   ar
     7    30    31   ar
     8    31    32   ar
     9    32    33    1
    10    32    34   ar
    11    34    35   ar
    12     4     5    1
    13     5    13    1
    14    13    14    1
    15    14    15    1
    16    15    16    1
    17    16    19    1
    18    19    20   ar
    19    20    21   ar
    20    21    22   ar
    21    22    23    1
    22    22    24   ar
    23    16    17    1
    24    17    18    1
    25     5     6    1
    26     6     7    1
    27     7     8   ar
    28     8     9   ar
    29     9    10   ar
    30    10    11   ar
    31    11    12   ar
    32    12     2    1
    33    35    29   ar
    34    18    13    1
    35    12     7   ar
    36    24    19   ar
    37    23    25    1
    38    23    26    1
    39    24    27    1
@<TRIPOS>MOLECULE
*****
 35 39 0 0 0
SMALL
GASTEIGER

@<TRIPOS>ATOM
      1 C         140.8100  146.1215  156.9576 C.3     1  UNL1        0.1122
      2 N         140.2753  145.0819  157.8975 N.pl3   1  UNL1       -0.3046
      3 C         140.7542  145.1788  159.3157 C.3     1  UNL1        0.1070
      4 C         140.4085  144.3005  160.4816 C.3     1  UNL1        0.0819
      5 N         139.4985  143.1086  160.5172 N.3     1  UNL1       -0.2695
      6 C         138.7095  142.5006  159.3957 C.3     1  UNL1        0.1004
      7 C         138.6355  142.9342  157.9617 C.ar    1  UNL1        0.0072
      8 C         137.7240  142.0467  157.1671 C.ar    1  UNL1       -0.0017
      9 C         137.5092  142.3080  155.7058 C.ar    1  UNL1       -0.0002
     10 C         138.2061  143.4568  155.0390 C.ar    1  UNL1        0.0012
     11 C         139.1177  144.3443  155.8335 C.ar    1  UNL1        0.0142
     12 C         139.3324  144.0830  157.2949 C.ar    1  UNL1        0.0452
     13 C         139.3591  142.4359  161.8506 C.3     1  UNL1        0.0612
     14 C         138.4135  142.9897  162.8749 C.3     1  UNL1        0.0375
     15 C         138.2741  142.3169  164.2083 C.3     1  UNL1        0.0950
     16 N         139.0803  141.0903  164.5174 N.pl3   1  UNL1       -0.2784
     17 C         140.0259  140.5365  163.4931 C.3     1  UNL1        0.0950
     18 C         140.1653  141.2093  162.1597 C.3     1  UNL1        0.0375
     19 C         138.9409  140.4176  165.8507 C.ar    1  UNL1        0.2194
     20 N         138.0375  139.2621  166.1652 N.ar    1  UNL1       -0.1117
     21 N         138.2187  138.9126  167.6126 N.ar    1  UNL1       -0.1121
     22 C         139.2341  139.8519  168.1927 C.ar    1  UNL1        0.2131
     23 N         139.7182  139.8597  169.6124 N.pl3   1  UNL1       -0.3277
     24 N         139.6805  140.7821  167.1038 N.ar    1  UNL1       -0.2979
     25 H         139.3635  139.2055  170.2570 H       1  UNL1        0.1451
     26 H         140.3905  140.5190  169.8997 H       1  UNL1        0.1451
     27 H         140.3426  141.5049  167.1955 H       1  UNL1        0.1713
     28 C         141.0588  144.6621  161.7840 C.3     1  UNL1        0.0440
     29 C         142.2896  143.9334  162.2355 C.ar    1  UNL1       -0.0207
     30 C         142.6124  143.8403  163.6975 C.ar    1  UNL1       -0.0034
     31 C         143.8432  143.1116  164.1489 C.ar    1  UNL1        0.0111
     32 C         144.7515  142.4759  163.1385 C.ar    1  UNL1        0.0577
     33 CL        145.9824  141.7472  163.5901 Cl      1  UNL1       -0.0822
     34 C         144.4288  142.5689  161.6766 C.ar    1  UNL1        0.0111
     35 C         143.1979  143.2976  161.2251 C.ar    1  UNL1       -0.0034
@<TRIPOS>BOND
     1     1     2    1
     2     2     3    1
     3     3     4    1
     4     4    28    1
     5    28    29    1
     6    29    30   ar
     7    30    31   ar
     8    31    32   ar
     9    32    33    1
    10    32    34   ar
    11    34    35   ar
    12     4     5    1
    13     5    13    1
    14    13    14    1
    15    14    15    1
    16    15    16    1
    17    16    19    1
    18    19    20   ar
    19    20    21   ar
    20    21    22   ar
    21    22    23    1
    22    22    24   ar
    23    16    17    1
    24    17    18    1
    25     5     6    1
    26     6     7    1
    27     7     8   ar
    28     8     9   ar
    29     9    10   ar
    30    10    11   ar
    31    11    12   ar
    32    12     2    1
    33    35    29   ar
    34    18    13    1
    35    12     7   ar
    36    24    19   ar
    37    23    25    1
    38    23    26    1
    39    24    27    1
@<TRIPOS>MOLECULE
*****
 35 39 0 0 0
SMALL
GASTEIGER

@<TRIPOS>ATOM
      1 C         137.6689  137.9792  166.9596 C.3     1  UNL1        0.1122
      2 N         138.7272  138.6703  166.1519 N.pl3   1  UNL1       -0.3046
      3 C         138.8843  138.1911  164.7392 C.3     1  UNL1        0.1070
      4 C         139.8415  138.6726  163.6894 C.3     1  UNL1        0.0819
      5 N         140.8780  139.7520  163.7930 N.3     1  UNL1       -0.2695
      6 C         141.2131  140.6166  164.9720 C.3     1  UNL1        0.1004
      7 C         140.5947  140.6153  166.3387 C.ar    1  UNL1        0.0072
      8 C         141.2270  141.6452  167.2272 C.ar    1  UNL1       -0.0017
      9 C         140.7529  141.8090  168.6408 C.ar    1  UNL1       -0.0002
     10 C         139.6465  140.9428  169.1659 C.ar    1  UNL1        0.0012
     11 C         139.0143  139.9129  168.2774 C.ar    1  UNL1        0.0142
     12 C         139.4884  139.7492  166.8638 C.ar    1  UNL1        0.0452
     13 C         141.6860  139.9995  162.5538 C.3     1  UNL1        0.0612
     14 C         142.7616  139.0333  162.1543 C.3     1  UNL1        0.0375
     15 C         143.5696  139.2809  160.9150 C.3     1  UNL1        0.0950
     16 N         143.3021  140.4946  160.0752 N.pl3   1  UNL1       -0.2784
     17 C         142.2264  141.4608  160.4746 C.3     1  UNL1        0.0950
     18 C         141.4184  141.2132  161.7139 C.3     1  UNL1        0.0375
     19 C         144.1101  140.7421  158.8360 C.ar    1  UNL1        0.2194
     20 N         144.3633  139.7537  157.7364 N.ar    1  UNL1       -0.1117
     21 N         145.2165  140.4222  156.6996 N.ar    1  UNL1       -0.1121
     22 C         145.4906  141.8238  157.1582 C.ar    1  UNL1        0.2131
     23 N         146.3055  142.8478  156.4252 N.pl3   1  UNL1       -0.3277
     24 N         144.8068  142.0215  158.4787 N.ar    1  UNL1       -0.2979
     25 H         146.7168  142.6220  155.5597 H       1  UNL1        0.1451
     26 H         146.4290  143.7457  156.8096 H       1  UNL1        0.1451
     27 H         144.8141  142.8462  159.0163 H       1  UNL1        0.1713
     28 C         139.7502  137.9834  162.3602 C.3     1  UNL1        0.0440
     29 C         139.1795  138.7080  161.1774 C.ar    1  UNL1       -0.0207
     30 C         139.8307  138.5777  159.8323 C.ar    1  UNL1       -0.0034
     31 C         139.2600  139.3023  158.6494 C.ar    1  UNL1        0.0111
     32 C         138.0381  140.1572  158.8115 C.ar    1  UNL1        0.0577
     33 CL        137.4674  140.8818  157.6286 Cl      1  UNL1       -0.0822
     34 C         137.3870  140.2875  160.1565 C.ar    1  UNL1        0.0111
     35 C         137.9577  139.5629  161.3395 C.ar    1  UNL1       -0.0034
@<TRIPOS>BOND
     1     1     2    1
     2     2     3    1
     3     3     4    1
     4     4    28    1
     5    28    29    1
     6    29    30   ar
     7    30    31   ar
     8    31    32   ar
     9    32    33    1
    10    32    34   ar
    11    34    35   ar
    12     4     5    1
    13     5    13    1
    14    13    14    1
    15    14    15    1
    16    15    16    1
    17    16    19    1
    18    19    20   ar
    19    20    21   ar
    20    21    22   ar
    21    22    23    1
    22    22    24   ar
    23    16    17    1
    24    17    18    1
    25     5     6    1
    26     6     7    1
    27     7     8   ar
    28     8     9   ar
    29     9    10   ar
    30    10    11   ar
    31    11    12   ar
    32    12     2    1
    33    35    29   ar
    34    18    13    1
    35    12     7   ar
    36    24    19   ar
    37    23    25    1
    38    23    26    1
    39    24    27    1
@<TRIPOS>MOLECULE
*****
 35 39 0 0 0
SMALL
GASTEIGER

@<TRIPOS>ATOM
      1 C         142.0572  138.5906  155.7051 C.3     1  UNL1        0.1122
      2 N         141.2340  138.9003  156.9202 N.pl3   1  UNL1       -0.3046
      3 C         141.8006  138.4304  158.2272 C.3     1  UNL1        0.1070
      4 C         141.2262  138.5831  159.6044 C.3     1  UNL1        0.0819
      5 N         139.9434  139.2435  160.0148 N.3     1  UNL1       -0.2695
      6 C         138.9182  139.9142  159.1493 C.3     1  UNL1        0.1004
      7 C         138.9225  140.0903  157.6596 C.ar    1  UNL1        0.0072
      8 C         137.7003  140.8225  157.1907 C.ar    1  UNL1       -0.0017
      9 C         137.5086  141.1034  155.7298 C.ar    1  UNL1       -0.0002
     10 C         138.5393  140.6522  154.7378 C.ar    1  UNL1        0.0012
     11 C         139.7616  139.9200  155.2067 C.ar    1  UNL1        0.0142
     12 C         139.9532  139.6390  156.6676 C.ar    1  UNL1        0.0452
     13 C         139.6465  139.2316  161.4850 C.3     1  UNL1        0.0612
     14 C         139.8879  140.4617  162.3089 C.3     1  UNL1        0.0375
     15 C         139.5911  140.4497  163.7792 C.3     1  UNL1        0.0950
     16 N         139.0529  139.2077  164.4257 N.pl3   1  UNL1       -0.2784
     17 C         138.8115  137.9776  163.6018 C.3     1  UNL1        0.0950
     18 C         139.1083  137.9896  162.1315 C.3     1  UNL1        0.0375
     19 C         138.7561  139.1958  165.8959 C.ar    1  UNL1        0.2194
     20 N         137.6382  138.4512  166.5637 N.ar    1  UNL1       -0.1117
     21 N         137.7162  138.7216  168.0370 N.ar    1  UNL1       -0.1121
     22 C         138.8824  139.6333  168.2799 C.ar    1  UNL1        0.2131
     23 N         139.3276  140.1594  169.6121 N.pl3   1  UNL1       -0.3277
     24 N         139.5250  139.9263  166.9566 N.ar    1  UNL1       -0.2979
     25 H         138.8383  139.9089  170.4289 H       1  UNL1        0.1451
     26 H         140.1092  140.7554  169.6698 H       1  UNL1        0.1451
     27 H         140.3132  140.4978  166.8099 H       1  UNL1        0.1713
     28 C         142.0425  137.9982  160.7186 C.3     1  UNL1        0.0440
     29 C         142.9822  138.8700  161.4975 C.ar    1  UNL1       -0.0207
     30 C         143.5587  140.1028  160.8666 C.ar    1  UNL1       -0.0034
     31 C         144.4984  140.9746  161.6455 C.ar    1  UNL1        0.0111
     32 C         144.8616  140.6138  163.0555 C.ar    1  UNL1        0.0577
     33 CL        145.8014  141.4857  163.8344 Cl      1  UNL1       -0.0822
     34 C         144.2852  139.3811  163.6864 C.ar    1  UNL1        0.0111
     35 C         143.3454  138.5092  162.9075 C.ar    1  UNL1       -0.0034
@<TRIPOS>BOND
     1     1     2    1
     2     2     3    1
     3     3     4    1
     4     4    28    1
     5    28    29    1
     6    29    30   ar
     7    30    31   ar
     8    31    32   ar
     9    32    33    1
    10    32    34   ar
    11    34    35   ar
    12     4     5    1
    13     5    13    1
    14    13    14    1
    15    14    15    1
    16    15    16    1
    17    16    19    1
    18    19    20   ar
    19    20    21   ar
    20    21    22   ar
    21    22    23    1
    22    22    24   ar
    23    16    17    1
    24    17    18    1
    25     5     6    1
    26     6     7    1
    27     7     8   ar
    28     8     9   ar
    29     9    10   ar
    30    10    11   ar
    31    11    12   ar
    32    12     2    1
    33    35    29   ar
    34    18    13    1
    35    12     7   ar
    36    24    19   ar
    37    23    25    1
    38    23    26    1
    39    24    27    1
@<TRIPOS>MOLECULE
*****
 35 39 0 0 0
SMALL
GASTEIGER

@<TRIPOS>ATOM
      1 C         137.8413  142.1975  157.5634 C.3     1  UNL1        0.1122
      2 N         138.5442  142.6272  158.8169 N.pl3   1  UNL1       -0.3046
      3 C         138.1200  141.9269  160.0736 C.3     1  UNL1        0.1070
      4 C         138.6253  142.1269  161.4718 C.3     1  UNL1        0.0819
      5 N         139.6795  143.0766  161.9584 N.3     1  UNL1       -0.2695
      6 C         140.4887  144.0608  161.1670 C.3     1  UNL1        0.1004
      7 C         140.4438  144.3385  159.6936 C.ar    1  UNL1        0.0072
      8 C         141.4243  145.4058  159.3069 C.ar    1  UNL1       -0.0017
      9 C         141.5394  145.8349  157.8743 C.ar    1  UNL1       -0.0002
     10 C         140.6740  145.1969  156.8283 C.ar    1  UNL1        0.0012
     11 C         139.6935  144.1297  157.2150 C.ar    1  UNL1        0.0142
     12 C         139.5784  143.7005  158.6477 C.ar    1  UNL1        0.0452
     13 C         139.9617  143.0367  163.4310 C.3     1  UNL1        0.0612
     14 C         139.0459  143.7388  164.3894 C.3     1  UNL1        0.0375
     15 C         139.3281  143.6989  165.8621 C.3     1  UNL1        0.0950
     16 N         140.5260  142.9570  166.3764 N.pl3   1  UNL1       -0.2784
     17 C         141.4418  142.2549  165.4180 C.3     1  UNL1        0.0950
     18 C         141.1596  142.2948  163.9453 C.3     1  UNL1        0.0375
     19 C         140.8082  142.9172  167.8490 C.ar    1  UNL1        0.2194
     20 N         140.1056  143.7199  168.9035 N.ar    1  UNL1       -0.1117
     21 N         140.7057  143.3665  170.2319 N.ar    1  UNL1       -0.1121
     22 C         141.7793  142.3452  169.9986 C.ar    1  UNL1        0.2131
     23 N         142.6386  141.7127  171.0529 N.pl3   1  UNL1       -0.3277
     24 N         141.8426  142.0675  168.5259 N.ar    1  UNL1       -0.2979
     25 H         142.5212  141.9615  171.9982 H       1  UNL1        0.1451
     26 H         143.3200  141.0489  170.7996 H       1  UNL1        0.1451
     27 H         142.4556  141.4381  168.0815 H       1  UNL1        0.1713
     28 C         137.9927  141.2629  162.5222 C.3     1  UNL1        0.0440
     29 C         138.7285  140.0691  163.0545 C.ar    1  UNL1       -0.0207
     30 C         139.6196  139.2720  162.1485 C.ar    1  UNL1       -0.0034
     31 C         140.3555  138.0783  162.6808 C.ar    1  UNL1        0.0111
     32 C         140.2003  137.6815  164.1190 C.ar    1  UNL1        0.0577
     33 CL        140.9362  136.4876  164.6512 Cl      1  UNL1       -0.0822
     34 C         139.3093  138.4785  165.0249 C.ar    1  UNL1        0.0111
     35 C         138.5734  139.6724  164.4927 C.ar    1  UNL1       -0.0034
@<TRIPOS>BOND
     1     1     2    1
     2     2     3    1
     3     3     4    1
     4     4    28    1
     5    28    29    1
     6    29    30   ar
     7    30    31   ar
     8    31    32   ar
     9    32    33    1
    10    32    34   ar
    11    34    35   ar
    12     4     5    1
    13     5    13    1
    14    13    14    1
    15    14    15    1
    16    15    16    1
    17    16    19    1
    18    19    20   ar
    19    20    21   ar
    20    21    22   ar
    21    22    23    1
    22    22    24   ar
    23    16    17    1
    24    17    18    1
    25     5     6    1
    26     6     7    1
    27     7     8   ar
    28     8     9   ar
    29     9    10   ar
    30    10    11   ar
    31    11    12   ar
    32    12     2    1
    33    35    29   ar
    34    18    13    1
    35    12     7   ar
    36    24    19   ar
    37    23    25    1
    38    23    26    1
    39    24    27    1
@<TRIPOS>MOLECULE
*****
 35 39 0 0 0
SMALL
GASTEIGER

@<TRIPOS>ATOM
      1 C         138.8425  139.5103  167.8167 C.3     1  UNL1        0.1122
      2 N         139.5484  140.4035  166.8399 N.pl3   1  UNL1       -0.3046
      3 C         138.8685  140.5852  165.5153 C.3     1  UNL1        0.1070
      4 C         139.3132  141.4051  164.3406 C.3     1  UNL1        0.0819
      5 N         140.5475  142.2458  164.2003 N.3     1  UNL1       -0.2695
      6 C         141.6420  142.4742  165.2003 C.3     1  UNL1        0.1004
      7 C         141.7726  141.9183  166.5873 C.ar    1  UNL1        0.0072
      8 C         143.0266  142.3998  167.2549 C.ar    1  UNL1       -0.0017
      9 C         143.3488  141.9598  168.6522 C.ar    1  UNL1       -0.0002
     10 C         142.4170  141.0382  169.3819 C.ar    1  UNL1        0.0012
     11 C         141.1631  140.5567  168.7144 C.ar    1  UNL1        0.0142
     12 C         140.8409  140.9967  167.3171 C.ar    1  UNL1        0.0452
     13 C         140.7086  142.9514  162.8865 C.3     1  UNL1        0.0612
     14 C         141.6981  142.4447  161.8794 C.3     1  UNL1        0.0375
     15 C         141.8591  143.1503  160.5656 C.3     1  UNL1        0.0950
     16 N         141.0308  144.3626  160.2588 N.pl3   1  UNL1       -0.2784
     17 C         140.0413  144.8694  161.2659 C.3     1  UNL1        0.0950
     18 C         139.8802  144.1637  162.5798 C.3     1  UNL1        0.0375
     19 C         141.1919  145.0682  158.9450 C.ar    1  UNL1        0.2194
     20 N         142.4379  145.1045  158.1106 N.ar    1  UNL1       -0.1117
     21 N         142.1513  145.9201  156.8848 N.ar    1  UNL1       -0.1121
     22 C         140.7282  146.3879  156.9615 C.ar    1  UNL1        0.2131
     23 N         140.0221  147.2337  155.9437 N.pl3   1  UNL1       -0.3277
     24 N         140.1352  145.8614  158.2348 N.ar    1  UNL1       -0.2979
     25 H         140.4986  147.5319  155.1355 H       1  UNL1        0.1451
     26 H         139.0821  147.4907  156.0839 H       1  UNL1        0.1451
     27 H         139.2142  146.0103  158.5492 H       1  UNL1        0.1713
     28 C         138.4031  141.3812  163.1484 C.3     1  UNL1        0.0440
     29 C         138.7624  140.5580  161.9470 C.ar    1  UNL1       -0.0207
     30 C         138.4409  141.0600  160.5705 C.ar    1  UNL1       -0.0034
     31 C         138.8001  140.2368  159.3692 C.ar    1  UNL1        0.0111
     32 C         139.4808  138.9117  159.5442 C.ar    1  UNL1        0.0577
     33 CL        139.8401  138.0885  158.3428 Cl      1  UNL1       -0.0822
     34 C         139.8023  138.4097  160.9207 C.ar    1  UNL1        0.0111
     35 C         139.4431  139.2329  162.1221 C.ar    1  UNL1       -0.0034
@<TRIPOS>BOND
     1     1     2    1
     2     2     3    1
     3     3     4    1
     4     4    28    1
     5    28    29    1
     6    29    30   ar
     7    30    31   ar
     8    31    32   ar
     9    32    33    1
    10    32    34   ar
    11    34    35   ar
    12     4     5    1
    13     5    13    1
    14    13    14    1
    15    14    15    1
    16    15    16    1
    17    16    19    1
    18    19    20   ar
    19    20    21   ar
    20    21    22   ar
    21    22    23    1
    22    22    24   ar
    23    16    17    1
    24    17    18    1
    25     5     6    1
    26     6     7    1
    27     7     8   ar
    28     8     9   ar
    29     9    10   ar
    30    10    11   ar
    31    11    12   ar
    32    12     2    1
    33    35    29   ar
    34    18    13    1
    35    12     7   ar
    36    24    19   ar
    37    23    25    1
    38    23    26    1
    39    24    27    1
@<TRIPOS>MOLECULE
*****
 35 39 0 0 0
SMALL
GASTEIGER

@<TRIPOS>ATOM
      1 C         141.2209  140.9151  157.0256 C.3     1  UNL1        0.1122
      2 N         141.3562  141.4748  158.4107 N.pl3   1  UNL1       -0.3046
      3 C         141.7427  140.4911  159.4752 C.3     1  UNL1        0.1070
      4 C         141.9556  140.7339  160.9400 C.3     1  UNL1        0.0819
      5 N         141.8346  142.0202  161.7022 N.3     1  UNL1       -0.2695
      6 C         141.4708  143.3814  161.1876 C.3     1  UNL1        0.1004
      7 C         141.1382  143.7926  159.7839 C.ar    1  UNL1        0.0072
      8 C         140.8305  145.2583  159.7006 C.ar    1  UNL1       -0.0017
      9 C         140.4717  145.8754  158.3813 C.ar    1  UNL1       -0.0002
     10 C         140.4207  145.0269  157.1455 C.ar    1  UNL1        0.0012
     11 C         140.7285  143.5612  157.2289 C.ar    1  UNL1        0.0142
     12 C         141.0872  142.9441  158.5481 C.ar    1  UNL1        0.0452
     13 C         142.1144  141.9339  163.1733 C.3     1  UNL1        0.0612
     14 C         143.5270  141.8084  163.6620 C.3     1  UNL1        0.0375
     15 C         143.8068  141.7220  165.1332 C.3     1  UNL1        0.0950
     16 N         142.6740  141.7612  166.1156 N.pl3   1  UNL1       -0.2784
     17 C         141.2613  141.8867  165.6269 C.3     1  UNL1        0.0950
     18 C         140.9816  141.9730  164.1557 C.3     1  UNL1        0.0375
     19 C         142.9537  141.6748  167.5867 C.ar    1  UNL1        0.2194
     20 N         143.6220  142.7276  168.4204 N.ar    1  UNL1       -0.1117
     21 N         143.6957  142.2240  169.8314 N.ar    1  UNL1       -0.1121
     22 C         143.0729  140.8599  169.8698 C.ar    1  UNL1        0.2131
     23 N         142.9332  139.9883  171.0825 N.pl3   1  UNL1       -0.3277
     24 N         142.6144  140.5205  168.4824 N.ar    1  UNL1       -0.2979
     25 H         143.2673  140.3007  171.9544 H       1  UNL1        0.1451
     26 H         142.5076  139.1038  171.0067 H       1  UNL1        0.1451
     27 H         142.1689  139.6866  168.2080 H       1  UNL1        0.1713
     28 C         142.3404  139.5314  161.7499 C.3     1  UNL1        0.0440
     29 C         141.3558  138.9236  162.7043 C.ar    1  UNL1       -0.0207
     30 C         141.8345  138.3136  163.9884 C.ar    1  UNL1       -0.0034
     31 C         140.8498  137.7058  164.9429 C.ar    1  UNL1        0.0111
     32 C         139.3865  137.7079  164.6133 C.ar    1  UNL1        0.0577
     33 CL        138.4019  137.1000  165.5678 Cl      1  UNL1       -0.0822
     34 C         138.9078  138.3178  163.3292 C.ar    1  UNL1        0.0111
     35 C         139.8924  138.9256  162.3747 C.ar    1  UNL1       -0.0034
@<TRIPOS>BOND
     1     1     2    1
     2     2     3    1
     3     3     4    1
     4     4    28    1
     5    28    29    1
     6    29    30   ar
     7    30    31   ar
     8    31    32   ar
     9    32    33    1
    10    32    34   ar
    11    34    35   ar
    12     4     5    1
    13     5    13    1
    14    13    14    1
    15    14    15    1
    16    15    16    1
    17    16    19    1
    18    19    20   ar
    19    20    21   ar
    20    21    22   ar
    21    22    23    1
    22    22    24   ar
    23    16    17    1
    24    17    18    1
    25     5     6    1
    26     6     7    1
    27     7     8   ar
    28     8     9   ar
    29     9    10   ar
    30    10    11   ar
    31    11    12   ar
    32    12     2    1
    33    35    29   ar
    34    18    13    1
    35    12     7   ar
    36    24    19   ar
    37    23    25    1
    38    23    26    1
    39    24    27    1
@<TRIPOS>MOLECULE
*****
 35 39 0 0 0
SMALL
GASTEIGER

@<TRIPOS>ATOM
      1 C         140.5758  141.9918  167.0769 C.3     1  UNL1        0.1122
      2 N         140.5754  141.0471  165.9118 N.pl3   1  UNL1       -0.3046
      3 C         141.4919  141.4085  164.7807 C.3     1  UNL1        0.1070
      4 C         141.7179  140.6779  163.4902 C.3     1  UNL1        0.0819
      5 N         141.0833  139.4056  163.0122 N.3     1  UNL1       -0.2695
      6 C         140.0659  138.5497  163.7067 C.3     1  UNL1        0.1004
      7 C         139.4318  138.7545  165.0506 C.ar    1  UNL1        0.0072
      8 C         138.4596  137.6581  165.3707 C.ar    1  UNL1       -0.0017
      9 C         137.7141  137.6731  166.6722 C.ar    1  UNL1       -0.0002
     10 C         137.9408  138.7846  167.6536 C.ar    1  UNL1        0.0012
     11 C         138.9131  139.8811  167.3335 C.ar    1  UNL1        0.0142
     12 C         139.6586  139.8660  166.0320 C.ar    1  UNL1        0.0452
     13 C         141.5243  138.9259  161.6612 C.3     1  UNL1        0.0612
     14 C         142.7210  138.0299  161.5374 C.3     1  UNL1        0.0375
     15 C         143.1621  137.5502  160.1863 C.3     1  UNL1        0.0950
     16 N         142.4065  137.9664  158.9591 N.pl3   1  UNL1       -0.2784
     17 C         141.2098  138.8623  159.0830 C.3     1  UNL1        0.0950
     18 C         140.7688  139.3420  160.4341 C.3     1  UNL1        0.0375
     19 C         142.8476  137.4867  157.6082 C.ar    1  UNL1        0.2194
     20 N         143.6839  138.2561  156.6290 N.ar    1  UNL1       -0.1117
     21 N         143.8830  137.3982  155.4148 N.ar    1  UNL1       -0.1121
     22 C         143.1697  136.0986  155.6434 C.ar    1  UNL1        0.2131
     23 N         143.1073  134.9466  154.6847 N.pl3   1  UNL1       -0.3277
     24 N         142.5298  136.1533  156.9990 N.ar    1  UNL1       -0.2979
     25 H         143.5622  135.0060  153.8136 H       1  UNL1        0.1451
     26 H         142.6115  134.1312  154.9266 H       1  UNL1        0.1451
     27 H         141.9951  135.4393  157.4157 H       1  UNL1        0.1713
     28 C         142.7097  141.3023  162.5540 C.3     1  UNL1        0.0440
     29 C         142.2667  142.3632  161.5906 C.ar    1  UNL1       -0.0207
     30 C         143.0077  142.5627  160.3017 C.ar    1  UNL1       -0.0034
     31 C         142.5647  143.6236  159.3384 C.ar    1  UNL1        0.0111
     32 C         141.3807  144.4851  159.6638 C.ar    1  UNL1        0.0577
     33 CL        140.9377  145.5461  158.7003 Cl      1  UNL1       -0.0822
     34 C         140.6397  144.2857  160.9526 C.ar    1  UNL1        0.0111
     35 C         141.0827  143.2247  161.9160 C.ar    1  UNL1       -0.0034
@<TRIPOS>BOND
     1     1     2    1
     2     2     3    1
     3     3     4    1
     4     4    28    1
     5    28    29    1
     6    29    30   ar
     7    30    31   ar
     8    31    32   ar
     9    32    33    1
    10    32    34   ar
    11    34    35   ar
    12     4     5    1
    13     5    13    1
    14    13    14    1
    15    14    15    1
    16    15    16    1
    17    16    19    1
    18    19    20   ar
    19    20    21   ar
    20    21    22   ar
    21    22    23    1
    22    22    24   ar
    23    16    17    1
    24    17    18    1
    25     5     6    1
    26     6     7    1
    27     7     8   ar
    28     8     9   ar
    29     9    10   ar
    30    10    11   ar
    31    11    12   ar
    32    12     2    1
    33    35    29   ar
    34    18    13    1
    35    12     7   ar
    36    24    19   ar
    37    23    25    1
    38    23    26    1
    39    24    27    1
@<TRIPOS>MOLECULE
*****
 35 39 0 0 0
SMALL
GASTEIGER

@<TRIPOS>ATOM
      1 C         144.0981  137.6975  161.3401 C.3     1  UNL1        0.1122
      2 N         143.3775  138.9941  161.1174 N.pl3   1  UNL1       -0.3046
      3 C         143.3591  139.4938  159.7032 C.3     1  UNL1        0.1070
      4 C         142.7292  140.7424  159.1607 C.3     1  UNL1        0.0819
      5 N         141.9622  141.7996  159.8983 N.3     1  UNL1       -0.2695
      6 C         141.6357  141.8692  161.3606 C.3     1  UNL1        0.1004
      7 C         141.9955  140.8990  162.4466 C.ar    1  UNL1        0.0072
      8 C         141.4710  141.3478  163.7783 C.ar    1  UNL1       -0.0017
      9 C         141.7217  140.5170  165.0017 C.ar    1  UNL1       -0.0002
     10 C         142.4969  139.2374  164.8935 C.ar    1  UNL1        0.0012
     11 C         143.0214  138.7886  163.5617 C.ar    1  UNL1        0.0142
     12 C         142.7707  139.6194  162.3383 C.ar    1  UNL1        0.0452
     13 C         141.4547  142.9375  159.0632 C.3     1  UNL1        0.0612
     14 C         142.2634  144.1946  158.9375 C.3     1  UNL1        0.0375
     15 C         141.7558  145.3325  158.1023 C.3     1  UNL1        0.0950
     16 N         140.4396  145.2134  157.3928 N.pl3   1  UNL1       -0.2784
     17 C         139.6309  143.9563  157.5185 C.3     1  UNL1        0.0950
     18 C         140.1385  142.8184  158.3537 C.3     1  UNL1        0.0375
     19 C         139.9321  146.3513  156.5577 C.ar    1  UNL1        0.2194
     20 N         140.0888  146.4936  155.0727 N.ar    1  UNL1       -0.1117
     21 N         139.4323  147.7769  154.6581 N.ar    1  UNL1       -0.1121
     22 C         138.8698  148.4280  155.8869 C.ar    1  UNL1        0.2131
     23 N         138.1286  149.7312  155.9334 N.pl3   1  UNL1       -0.3277
     24 N         139.1787  147.5468  157.0609 N.ar    1  UNL1       -0.2979
     25 H         137.9745  150.2397  155.1046 H       1  UNL1        0.1451
     26 H         137.7963  150.0781  156.7928 H       1  UNL1        0.1451
     27 H         138.9306  147.7224  157.9973 H       1  UNL1        0.1713
     28 C         142.8873  140.9630  157.6854 C.3     1  UNL1        0.0440
     29 C         144.2476  141.2162  157.1064 C.ar    1  UNL1       -0.0207
     30 C         144.7000  140.4572  155.8942 C.ar    1  UNL1       -0.0034
     31 C         146.0604  140.7104  155.3152 C.ar    1  UNL1        0.0111
     32 C         146.9684  141.7227  155.9484 C.ar    1  UNL1        0.0577
     33 CL        148.3288  141.9760  155.3693 Cl      1  UNL1       -0.0822
     34 C         146.5160  142.4817  157.1605 C.ar    1  UNL1        0.0111
     35 C         145.1556  142.2285  157.7395 C.ar    1  UNL1       -0.0034
@<TRIPOS>BOND
     1     1     2    1
     2     2     3    1
     3     3     4    1
     4     4    28    1
     5    28    29    1
     6    29    30   ar
     7    30    31   ar
     8    31    32   ar
     9    32    33    1
    10    32    34   ar
    11    34    35   ar
    12     4     5    1
    13     5    13    1
    14    13    14    1
    15    14    15    1
    16    15    16    1
    17    16    19    1
    18    19    20   ar
    19    20    21   ar
    20    21    22   ar
    21    22    23    1
    22    22    24   ar
    23    16    17    1
    24    17    18    1
    25     5     6    1
    26     6     7    1
    27     7     8   ar
    28     8     9   ar
    29     9    10   ar
    30    10    11   ar
    31    11    12   ar
    32    12     2    1
    33    35    29   ar
    34    18    13    1
    35    12     7   ar
    36    24    19   ar
    37    23    25    1
    38    23    26    1
    39    24    27    1
