@<TRIPOS>MOLECULE
*****
 26 29 0 0 0
SMALL
GASTEIGER

@<TRIPOS>ATOM
      1 C         140.6614  143.6771  170.2526 C.3     1  UNL1        0.0311
      2 C         140.3500  142.6400  169.2146 C.ar    1  UNL1       -0.0203
      3 C         139.8808  141.2779  169.6324 C.ar    1  UNL1       -0.0029
      4 C         139.5694  140.2408  168.5944 C.ar    1  UNL1        0.0158
      5 C         139.7273  140.5658  167.1386 C.ar    1  UNL1        0.0662
      6 C         140.1964  141.9279  166.7208 C.ar    1  UNL1        0.0943
      7 C         140.5078  142.9649  167.7588 C.ar    1  UNL1        0.0161
      8 N         140.4197  142.4557  165.3346 N.2     1  UNL1       -0.2444
      9 C         140.2289  141.7518  164.0238 C.2     1  UNL1        0.0783
     10 C         139.7677  140.3462  163.7755 C.ar    1  UNL1        0.0316
     11 C         139.7143  140.0380  162.3085 C.ar    1  UNL1        0.0141
     12 C         139.2767  138.6811  161.8426 C.ar    1  UNL1        0.0578
     13 CL        139.2234  138.3728  160.3756 Cl      1  UNL1       -0.0822
     14 C         138.8925  137.6323  162.8437 C.ar    1  UNL1        0.0127
     15 C         138.9458  137.9404  164.3108 C.ar    1  UNL1        0.0155
     16 C         139.3834  139.2974  164.7767 C.ar    1  UNL1        0.0498
     17 N         139.3654  139.3951  166.2734 N.pl3   1  UNL1       -0.3113
     18 H         139.0781  138.5836  166.7511 H       1  UNL1        0.1523
     19 C         140.5404  142.5604  162.7994 C.2     1  UNL1       -0.0061
     20 C         141.8371  142.3540  162.0741 C.2     1  UNL1       -0.0132
     21 C         142.1486  143.1627  160.8498 C.3     1  UNL1        0.0796
     22 C         143.4453  142.9562  160.1246 C.3     1  UNL1        0.0222
     23 N         141.1634  144.1778  160.3508 N.3     1  UNL1       -0.2688
     24 C         141.4750  144.9864  159.1264 C.3     1  UNL1        0.0899
     25 C         139.8668  144.3842  161.0760 C.3     1  UNL1        0.0771
     26 C         139.5553  143.5755  162.3004 C.3     1  UNL1        0.0449
@<TRIPOS>BOND
     1     1     2    1
     2     2     3   ar
     3     3     4   ar
     4     4     5   ar
     5     5     6   ar
     6     6     7   ar
     7     6     8    1
     8     8     9    2
     9     9    19    1
    10    19    20    2
    11    20    21    1
    12    21    22    1
    13    21    23    1
    14    23    24    1
    15    23    25    1
    16    25    26    1
    17     9    10    1
    18    10    11   ar
    19    11    12   ar
    20    12    13    1
    21    12    14   ar
    22    14    15   ar
    23    15    16   ar
    24    16    17    1
    25     7     2   ar
    26    26    19    1
    27    16    10   ar
    28    17     5    1
    29    17    18    1
@<TRIPOS>MOLECULE
*****
 26 29 0 0 0
SMALL
GASTEIGER

@<TRIPOS>ATOM
      1 C         144.1170  142.5073  169.9669 C.3     1  UNL1        0.0311
      2 C         143.2399  141.7158  169.0427 C.ar    1  UNL1       -0.0203
      3 C         142.6517  140.4136  169.4990 C.ar    1  UNL1       -0.0029
      4 C         141.7746  139.6220  168.5748 C.ar    1  UNL1        0.0158
      5 C         141.4858  140.1326  167.1943 C.ar    1  UNL1        0.0662
      6 C         142.0740  141.4348  166.7381 C.ar    1  UNL1        0.0943
      7 C         142.9511  142.2264  167.6622 C.ar    1  UNL1        0.0161
      8 N         141.9145  142.1199  165.4132 N.2     1  UNL1       -0.2444
      9 C         141.1273  141.6720  164.2174 C.2     1  UNL1        0.0783
     10 C         140.3053  140.4283  164.0513 C.ar    1  UNL1        0.0316
     11 C         139.6780  140.3639  162.6902 C.ar    1  UNL1        0.0141
     12 C         138.8128  139.1966  162.3177 C.ar    1  UNL1        0.0578
     13 CL        138.1855  139.1321  160.9567 Cl      1  UNL1       -0.0822
     14 C         138.5749  138.0937  163.3062 C.ar    1  UNL1        0.0127
     15 C         139.2022  138.1581  164.6671 C.ar    1  UNL1        0.0155
     16 C         140.0674  139.3255  165.0397 C.ar    1  UNL1        0.0498
     17 N         140.5928  139.1938  166.4386 N.pl3   1  UNL1       -0.3113
     18 H         140.3147  138.3842  166.9249 H       1  UNL1        0.1523
     19 C         141.1675  142.5889  163.0311 C.2     1  UNL1       -0.0061
     20 C         140.3636  143.8553  163.0343 C.2     1  UNL1       -0.0132
     21 C         140.4039  144.7723  161.8479 C.3     1  UNL1        0.0796
     22 C         139.6000  146.0387  161.8513 C.3     1  UNL1        0.0222
     23 N         141.2481  144.4229  160.6583 N.3     1  UNL1       -0.2688
     24 C         141.2883  145.3399  159.4719 C.3     1  UNL1        0.0899
     25 C         142.0519  143.1565  160.6550 C.3     1  UNL1        0.0771
     26 C         142.0116  142.2395  161.8414 C.3     1  UNL1        0.0449
@<TRIPOS>BOND
     1     1     2    1
     2     2     3   ar
     3     3     4   ar
     4     4     5   ar
     5     5     6   ar
     6     6     7   ar
     7     6     8    1
     8     8     9    2
     9     9    19    1
    10    19    20    2
    11    20    21    1
    12    21    22    1
    13    21    23    1
    14    23    24    1
    15    23    25    1
    16    25    26    1
    17     9    10    1
    18    10    11   ar
    19    11    12   ar
    20    12    13    1
    21    12    14   ar
    22    14    15   ar
    23    15    16   ar
    24    16    17    1
    25     7     2   ar
    26    26    19    1
    27    16    10   ar
    28    17     5    1
    29    17    18    1
@<TRIPOS>MOLECULE
*****
 26 29 0 0 0
SMALL
GASTEIGER

@<TRIPOS>ATOM
      1 C         138.7548  143.9574  156.2346 C.3     1  UNL1        0.0311
      2 C         139.6221  144.1371  157.4451 C.ar    1  UNL1       -0.0203
      3 C         140.6162  145.2592  157.4956 C.ar    1  UNL1       -0.0029
      4 C         141.4835  145.4389  158.7062 C.ar    1  UNL1        0.0158
      5 C         141.3569  144.4964  159.8662 C.ar    1  UNL1        0.0662
      6 C         140.3628  143.3743  159.8156 C.ar    1  UNL1        0.0943
      7 C         139.4955  143.1946  158.6051 C.ar    1  UNL1        0.0161
      8 N         140.0774  142.3303  160.8542 N.2     1  UNL1       -0.2444
      9 C         140.7155  142.1506  162.1998 C.2     1  UNL1        0.0783
     10 C         141.7966  142.9706  162.8391 C.ar    1  UNL1        0.0316
     11 C         142.1487  142.4475  164.2002 C.ar    1  UNL1        0.0141
     12 C         143.2109  143.1266  165.0129 C.ar    1  UNL1        0.0578
     13 CL        143.5631  142.6036  166.3739 Cl      1  UNL1       -0.0822
     14 C         143.9210  144.3288  164.4646 C.ar    1  UNL1        0.0127
     15 C         143.5689  144.8518  163.1036 C.ar    1  UNL1        0.0155
     16 C         142.5066  144.1727  162.2908 C.ar    1  UNL1        0.0498
     17 N         142.3109  144.8518  160.9677 N.pl3   1  UNL1       -0.3113
     18 H         142.8846  145.6342  160.8001 H       1  UNL1        0.1523
     19 C         140.2049  140.9987  163.0136 C.2     1  UNL1       -0.0061
     20 C         140.8911  139.6668  162.9413 C.2     1  UNL1       -0.0132
     21 C         140.3804  138.5149  163.7551 C.3     1  UNL1        0.0796
     22 C         141.0667  137.1830  163.6828 C.3     1  UNL1        0.0222
     23 N         139.1836  138.6948  164.6412 N.3     1  UNL1       -0.2688
     24 C         138.6730  137.5428  165.4550 C.3     1  UNL1        0.0899
     25 C         138.4974  140.0266  164.7135 C.3     1  UNL1        0.0771
     26 C         139.0080  141.1786  163.8996 C.3     1  UNL1        0.0449
@<TRIPOS>BOND
     1     1     2    1
     2     2     3   ar
     3     3     4   ar
     4     4     5   ar
     5     5     6   ar
     6     6     7   ar
     7     6     8    1
     8     8     9    2
     9     9    19    1
    10    19    20    2
    11    20    21    1
    12    21    22    1
    13    21    23    1
    14    23    24    1
    15    23    25    1
    16    25    26    1
    17     9    10    1
    18    10    11   ar
    19    11    12   ar
    20    12    13    1
    21    12    14   ar
    22    14    15   ar
    23    15    16   ar
    24    16    17    1
    25     7     2   ar
    26    26    19    1
    27    16    10   ar
    28    17     5    1
    29    17    18    1
@<TRIPOS>MOLECULE
*****
 26 29 0 0 0
SMALL
GASTEIGER

@<TRIPOS>ATOM
      1 C         144.1095  137.3605  161.0086 C.3     1  UNL1        0.0311
      2 C         143.1950  138.5189  161.2766 C.ar    1  UNL1       -0.0203
      3 C         142.5072  139.2107  160.1372 C.ar    1  UNL1       -0.0029
      4 C         141.5927  140.3691  160.4051 C.ar    1  UNL1        0.0158
      5 C         141.3661  140.8358  161.8125 C.ar    1  UNL1        0.0662
      6 C         142.0538  140.1440  162.9520 C.ar    1  UNL1        0.0943
      7 C         142.9683  138.9856  162.6840 C.ar    1  UNL1        0.0161
      8 N         141.9676  140.4462  164.4187 N.2     1  UNL1       -0.2444
      9 C         141.1722  141.5149  165.1082 C.2     1  UNL1        0.0783
     10 C         140.2667  142.5452  164.5013 C.ar    1  UNL1        0.0316
     11 C         139.6611  143.4291  165.5510 C.ar    1  UNL1        0.0141
     12 C         138.7217  144.5292  165.1545 C.ar    1  UNL1        0.0578
     13 CL        138.1161  145.4131  166.2041 Cl      1  UNL1       -0.0822
     14 C         138.3879  144.7454  163.7082 C.ar    1  UNL1        0.0127
     15 C         138.9934  143.8615  162.6584 C.ar    1  UNL1        0.0155
     16 C         139.9329  142.7614  163.0550 C.ar    1  UNL1        0.0498
     17 N         140.4221  142.0006  161.8583 N.pl3   1  UNL1       -0.3113
     18 H         140.0783  142.3062  160.9879 H       1  UNL1        0.1523
     19 C         141.2992  141.5589  166.6021 C.2     1  UNL1       -0.0061
     20 C         140.2162  140.9812  167.4644 C.2     1  UNL1       -0.0132
     21 C         140.3433  141.0254  168.9583 C.3     1  UNL1        0.0796
     22 C         139.2603  140.4476  169.8204 C.3     1  UNL1        0.0222
     23 N         141.5533  141.6472  169.5901 N.3     1  UNL1       -0.2688
     24 C         141.6803  141.6913  171.0841 C.3     1  UNL1        0.0899
     25 C         142.6363  142.2249  168.7279 C.3     1  UNL1        0.0771
     26 C         142.5092  142.1808  167.2339 C.3     1  UNL1        0.0449
@<TRIPOS>BOND
     1     1     2    1
     2     2     3   ar
     3     3     4   ar
     4     4     5   ar
     5     5     6   ar
     6     6     7   ar
     7     6     8    1
     8     8     9    2
     9     9    19    1
    10    19    20    2
    11    20    21    1
    12    21    22    1
    13    21    23    1
    14    23    24    1
    15    23    25    1
    16    25    26    1
    17     9    10    1
    18    10    11   ar
    19    11    12   ar
    20    12    13    1
    21    12    14   ar
    22    14    15   ar
    23    15    16   ar
    24    16    17    1
    25     7     2   ar
    26    26    19    1
    27    16    10   ar
    28    17     5    1
    29    17    18    1
@<TRIPOS>MOLECULE
*****
 26 29 0 0 0
SMALL
GASTEIGER

@<TRIPOS>ATOM
      1 C         143.0834  138.1065  170.2528 C.3     1  UNL1        0.0311
      2 C         142.4001  139.2038  169.4918 C.ar    1  UNL1       -0.0203
      3 C         141.5243  140.1844  170.2138 C.ar    1  UNL1       -0.0029
      4 C         140.8410  141.2817  169.4528 C.ar    1  UNL1        0.0158
      5 C         141.0334  141.3983  167.9698 C.ar    1  UNL1        0.0662
      6 C         141.9092  140.4176  167.2478 C.ar    1  UNL1        0.0943
      7 C         142.5925  139.3204  168.0088 C.ar    1  UNL1        0.0161
      8 N         142.2336  140.3541  165.7847 N.2     1  UNL1       -0.2444
      9 C         141.7625  141.2555  164.6822 C.2     1  UNL1        0.0783
     10 C         140.8505  142.4431  164.7706 C.ar    1  UNL1        0.0316
     11 C         140.6333  143.0687  163.4247 C.ar    1  UNL1        0.0141
     12 C         139.7501  144.2737  163.2914 C.ar    1  UNL1        0.0578
     13 CL        139.5329  144.8993  161.9455 Cl      1  UNL1       -0.0822
     14 C         139.0840  144.8531  164.5040 C.ar    1  UNL1        0.0127
     15 C         139.3011  144.2276  165.8499 C.ar    1  UNL1        0.0155
     16 C         140.1844  143.0226  165.9833 C.ar    1  UNL1        0.0498
     17 N         140.2658  142.5576  167.4071 N.pl3   1  UNL1       -0.3113
     18 H         139.7468  143.0827  168.0583 H       1  UNL1        0.1523
     19 C         142.2705  140.9257  163.3100 C.2     1  UNL1       -0.0061
     20 C         141.4946  139.9942  162.4266 C.2     1  UNL1       -0.0132
     21 C         142.0027  139.6645  161.0544 C.3     1  UNL1        0.0796
     22 C         141.2267  138.7330  160.1712 C.3     1  UNL1        0.0222
     23 N         143.2867  140.2662  160.5655 N.3     1  UNL1       -0.2688
     24 C         143.7948  139.9364  159.1931 C.3     1  UNL1        0.0899
     25 C         144.0627  141.1977  161.4487 C.3     1  UNL1        0.0771
     26 C         143.5546  141.5275  162.8210 C.3     1  UNL1        0.0449
@<TRIPOS>BOND
     1     1     2    1
     2     2     3   ar
     3     3     4   ar
     4     4     5   ar
     5     5     6   ar
     6     6     7   ar
     7     6     8    1
     8     8     9    2
     9     9    19    1
    10    19    20    2
    11    20    21    1
    12    21    22    1
    13    21    23    1
    14    23    24    1
    15    23    25    1
    16    25    26    1
    17     9    10    1
    18    10    11   ar
    19    11    12   ar
    20    12    13    1
    21    12    14   ar
    22    14    15   ar
    23    15    16   ar
    24    16    17    1
    25     7     2   ar
    26    26    19    1
    27    16    10   ar
    28    17     5    1
    29    17    18    1
@<TRIPOS>MOLECULE
*****
 26 29 0 0 0
SMALL
GASTEIGER

@<TRIPOS>ATOM
      1 C         136.9750  137.5228  167.3429 C.3     1  UNL1        0.0311
      2 C         138.0880  138.4501  166.9539 C.ar    1  UNL1       -0.0203
      3 C         138.5526  139.5072  167.9112 C.ar    1  UNL1       -0.0029
      4 C         139.6656  140.4346  167.5222 C.ar    1  UNL1        0.0158
      5 C         140.3140  140.3047  166.1759 C.ar    1  UNL1        0.0662
      6 C         139.8494  139.2475  165.2186 C.ar    1  UNL1        0.0943
      7 C         138.7364  138.3202  165.6076 C.ar    1  UNL1        0.0161
      8 N         140.3548  138.9484  163.8384 N.2     1  UNL1       -0.2444
      9 C         141.4497  139.6325  163.0745 C.2     1  UNL1        0.0783
     10 C         142.3095  140.7847  163.5024 C.ar    1  UNL1        0.0316
     11 C         143.2889  141.1648  162.4317 C.ar    1  UNL1        0.0141
     12 C         144.2456  142.2976  162.6583 C.ar    1  UNL1        0.0578
     13 CL        145.2250  142.6778  161.5877 Cl      1  UNL1       -0.0822
     14 C         144.2229  143.0503  163.9556 C.ar    1  UNL1        0.0127
     15 C         143.2436  142.6702  165.0262 C.ar    1  UNL1        0.0155
     16 C         142.2868  141.5374  164.7997 C.ar    1  UNL1        0.0498
     17 N         141.3987  141.3238  165.9895 N.pl3   1  UNL1       -0.3113
     18 H         141.5474  141.9330  166.7485 H       1  UNL1        0.1523
     19 C         141.7205  139.0930  161.7014 C.2     1  UNL1       -0.0061
     20 C         140.9744  139.6392  160.5203 C.2     1  UNL1       -0.0132
     21 C         141.2452  139.0996  159.1472 C.3     1  UNL1        0.0796
     22 C         140.4991  139.6459  157.9661 C.3     1  UNL1        0.0222
     23 N         142.2622  138.0138  158.9551 N.3     1  UNL1       -0.2688
     24 C         142.5330  137.4743  157.5819 C.3     1  UNL1        0.0899
     25 C         143.0083  137.4676  160.1362 C.3     1  UNL1        0.0771
     26 C         142.7374  138.0072  161.5093 C.3     1  UNL1        0.0449
@<TRIPOS>BOND
     1     1     2    1
     2     2     3   ar
     3     3     4   ar
     4     4     5   ar
     5     5     6   ar
     6     6     7   ar
     7     6     8    1
     8     8     9    2
     9     9    19    1
    10    19    20    2
    11    20    21    1
    12    21    22    1
    13    21    23    1
    14    23    24    1
    15    23    25    1
    16    25    26    1
    17     9    10    1
    18    10    11   ar
    19    11    12   ar
    20    12    13    1
    21    12    14   ar
    22    14    15   ar
    23    15    16   ar
    24    16    17    1
    25     7     2   ar
    26    26    19    1
    27    16    10   ar
    28    17     5    1
    29    17    18    1
@<TRIPOS>MOLECULE
*****
 26 29 0 0 0
SMALL
GASTEIGER

@<TRIPOS>ATOM
      1 C         143.3569  141.0234  170.3679 C.3     1  UNL1        0.0311
      2 C         142.4417  141.5508  169.3029 C.ar    1  UNL1       -0.0203
      3 C         141.4728  142.6500  169.6235 C.ar    1  UNL1       -0.0029
      4 C         140.5577  143.1774  168.5584 C.ar    1  UNL1        0.0158
      5 C         140.6114  142.6055  167.1728 C.ar    1  UNL1        0.0662
      6 C         141.5803  141.5063  166.8522 C.ar    1  UNL1        0.0943
      7 C         142.4955  140.9789  167.9172 C.ar    1  UNL1        0.0161
      8 N         141.7955  140.8008  165.5461 N.2     1  UNL1       -0.2444
      9 C         141.0951  141.0203  164.2379 C.2     1  UNL1        0.0783
     10 C         140.0063  141.9996  163.9129 C.ar    1  UNL1        0.0316
     11 C         139.5828  141.8918  162.4780 C.ar    1  UNL1        0.0141
     12 C         138.5021  142.7856  161.9458 C.ar    1  UNL1        0.0578
     13 CL        138.0785  142.6779  160.5109 Cl      1  UNL1       -0.0822
     14 C         137.8449  143.7871  162.8486 C.ar    1  UNL1        0.0127
     15 C         138.2684  143.8949  164.2835 C.ar    1  UNL1        0.0155
     16 C         139.3492  143.0011  164.8157 C.ar    1  UNL1        0.0498
     17 N         139.6184  143.2708  166.2665 N.pl3   1  UNL1       -0.3113
     18 H         139.0711  143.9780  166.6783 H       1  UNL1        0.1523
     19 C         141.5425  140.1449  163.1051 C.2     1  UNL1       -0.0061
     20 C         142.4658  140.6893  162.0558 C.2     1  UNL1       -0.0132
     21 C         142.9132  139.8138  160.9230 C.3     1  UNL1        0.0796
     22 C         143.8365  140.3584  159.8737 C.3     1  UNL1        0.0222
     23 N         142.4374  138.3937  160.8396 N.3     1  UNL1       -0.2688
     24 C         142.8849  137.5182  159.7067 C.3     1  UNL1        0.0899
     25 C         141.5141  137.8492  161.8888 C.3     1  UNL1        0.0771
     26 C         141.0667  138.7248  163.0217 C.3     1  UNL1        0.0449
@<TRIPOS>BOND
     1     1     2    1
     2     2     3   ar
     3     3     4   ar
     4     4     5   ar
     5     5     6   ar
     6     6     7   ar
     7     6     8    1
     8     8     9    2
     9     9    19    1
    10    19    20    2
    11    20    21    1
    12    21    22    1
    13    21    23    1
    14    23    24    1
    15    23    25    1
    16    25    26    1
    17     9    10    1
    18    10    11   ar
    19    11    12   ar
    20    12    13    1
    21    12    14   ar
    22    14    15   ar
    23    15    16   ar
    24    16    17    1
    25     7     2   ar
    26    26    19    1
    27    16    10   ar
    28    17     5    1
    29    17    18    1
@<TRIPOS>MOLECULE
*****
 26 29 0 0 0
SMALL
GASTEIGER

@<TRIPOS>ATOM
      1 C         138.0975  139.8107  170.3406 C.3     1  UNL1        0.0311
      2 C         139.2056  140.4067  169.5240 C.ar    1  UNL1       -0.0203
      3 C         140.2392  141.2727  170.1810 C.ar    1  UNL1       -0.0029
      4 C         141.3473  141.8687  169.3644 C.ar    1  UNL1        0.0158
      5 C         141.4219  141.5987  167.8909 C.ar    1  UNL1        0.0662
      6 C         140.3883  140.7327  167.2338 C.ar    1  UNL1        0.0943
      7 C         139.2801  140.1367  168.0504 C.ar    1  UNL1        0.0161
      8 N         140.2777  140.3399  165.7904 N.2     1  UNL1       -0.2444
      9 C         141.1733  140.7161  164.6475 C.2     1  UNL1        0.0783
     10 C         142.4008  141.5780  164.6658 C.ar    1  UNL1        0.0316
     11 C         143.0045  141.7010  163.2981 C.ar    1  UNL1        0.0141
     12 C         144.2431  142.5226  163.0961 C.ar    1  UNL1        0.0578
     13 CL        144.8468  142.6456  161.7285 Cl      1  UNL1       -0.0822
     14 C         144.8781  143.2211  164.2618 C.ar    1  UNL1        0.0127
     15 C         144.2745  143.0982  165.6294 C.ar    1  UNL1        0.0155
     16 C         143.0358  142.2766  165.8314 C.ar    1  UNL1        0.0498
     17 N         142.6001  142.2858  167.2668 N.pl3   1  UNL1       -0.3113
     18 H         143.1618  142.8124  167.8803 H       1  UNL1        0.1523
     19 C         140.7909  140.1564  163.3094 C.2     1  UNL1       -0.0061
     20 C         139.8508  140.9148  162.4200 C.2     1  UNL1       -0.0132
     21 C         139.4685  140.3550  161.0820 C.3     1  UNL1        0.0796
     22 C         138.5283  141.1134  160.1926 C.3     1  UNL1        0.0222
     23 N         140.0262  139.0368  160.6333 N.3     1  UNL1       -0.2688
     24 C         139.6437  138.4771  159.2952 C.3     1  UNL1        0.0899
     25 C         140.9663  138.2784  161.5226 C.3     1  UNL1        0.0771
     26 C         141.3487  138.8382  162.8607 C.3     1  UNL1        0.0449
@<TRIPOS>BOND
     1     1     2    1
     2     2     3   ar
     3     3     4   ar
     4     4     5   ar
     5     5     6   ar
     6     6     7   ar
     7     6     8    1
     8     8     9    2
     9     9    19    1
    10    19    20    2
    11    20    21    1
    12    21    22    1
    13    21    23    1
    14    23    24    1
    15    23    25    1
    16    25    26    1
    17     9    10    1
    18    10    11   ar
    19    11    12   ar
    20    12    13    1
    21    12    14   ar
    22    14    15   ar
    23    15    16   ar
    24    16    17    1
    25     7     2   ar
    26    26    19    1
    27    16    10   ar
    28    17     5    1
    29    17    18    1
@<TRIPOS>MOLECULE
*****
 26 29 0 0 0
SMALL
GASTEIGER

@<TRIPOS>ATOM
      1 C         137.3844  137.9743  167.1359 C.3     1  UNL1        0.0311
      2 C         138.3611  138.8743  166.4387 C.ar    1  UNL1       -0.0203
      3 C         139.2575  139.7718  167.2393 C.ar    1  UNL1       -0.0029
      4 C         140.2341  140.6718  166.5421 C.ar    1  UNL1        0.0158
      5 C         140.3145  140.6743  165.0443 C.ar    1  UNL1        0.0662
      6 C         139.4182  139.7767  164.2437 C.ar    1  UNL1        0.0943
      7 C         138.4415  138.8767  164.9409 C.ar    1  UNL1        0.0161
      8 N         139.3365  139.6244  162.7537 N.2     1  UNL1       -0.2444
      9 C         140.1309  140.3321  161.6962 C.2     1  UNL1        0.0783
     10 C         141.2032  141.3668  161.8677 C.ar    1  UNL1        0.0316
     11 C         141.7448  141.8193  160.5441 C.ar    1  UNL1        0.0141
     12 C         142.8292  142.8543  160.4917 C.ar    1  UNL1        0.0578
     13 CL        143.3708  143.3069  159.1681 Cl      1  UNL1       -0.0822
     14 C         143.3720  143.4369  161.7628 C.ar    1  UNL1        0.0127
     15 C         142.8304  142.9845  163.0865 C.ar    1  UNL1        0.0155
     16 C         141.7460  141.9494  163.1389 C.ar    1  UNL1        0.0498
     17 N         141.3505  141.6412  164.5527 N.pl3   1  UNL1       -0.3113
     18 H         141.8349  142.1394  165.2500 H       1  UNL1        0.1523
     19 C         139.8106  139.9552  160.2802 C.2     1  UNL1       -0.0061
     20 C         138.7862  140.7345  159.5099 C.2     1  UNL1       -0.0132
     21 C         138.4659  140.3575  158.0938 C.3     1  UNL1        0.0796
     22 C         137.4415  141.1369  157.3237 C.3     1  UNL1        0.0222
     23 N         139.1701  139.2012  157.4480 N.3     1  UNL1       -0.2688
     24 C         138.8497  138.8243  156.0318 C.3     1  UNL1        0.0899
     25 C         140.1945  138.4219  158.2181 C.3     1  UNL1        0.0771
     26 C         140.5147  138.7989  159.6343 C.3     1  UNL1        0.0449
@<TRIPOS>BOND
     1     1     2    1
     2     2     3   ar
     3     3     4   ar
     4     4     5   ar
     5     5     6   ar
     6     6     7   ar
     7     6     8    1
     8     8     9    2
     9     9    19    1
    10    19    20    2
    11    20    21    1
    12    21    22    1
    13    21    23    1
    14    23    24    1
    15    23    25    1
    16    25    26    1
    17     9    10    1
    18    10    11   ar
    19    11    12   ar
    20    12    13    1
    21    12    14   ar
    22    14    15   ar
    23    15    16   ar
    24    16    17    1
    25     7     2   ar
    26    26    19    1
    27    16    10   ar
    28    17     5    1
    29    17    18    1
