@<TRIPOS>MOLECULE
*****
 25 27 0 0 0
SMALL
GASTEIGER

@<TRIPOS>ATOM
      1 N         143.4205  143.9507  171.2829 N.pl3   1  UNL1       -0.3375
      2 C         142.6149  143.0141  170.4322 C.ar    1  UNL1        0.1568
      3 N         141.2491  142.4841  170.7544 N.ar    1  UNL1       -0.2214
      4 C         140.8237  141.5855  169.6313 C.ar    1  UNL1        0.1227
      5 C         139.5746  140.7871  169.4028 C.ar    1  UNL1        0.1518
      6 O         138.4718  140.8125  170.4192 O.3     1  UNL1       -0.5040
      7 C         139.4283  139.9632  168.1578 C.ar    1  UNL1        0.0427
      8 C         140.5311  139.9377  167.1414 C.ar    1  UNL1        0.0570
      9 C         141.7803  140.7362  167.3700 C.ar    1  UNL1        0.0128
     10 C         141.9266  141.5600  168.6149 C.ar    1  UNL1        0.0528
     11 S         143.0336  142.4429  169.1099 S.2     1  UNL1       -0.0519
     12 H         143.0581  144.2725  172.1398 H       1  UNL1        0.1442
     13 H         144.3118  144.2436  170.9843 H       1  UNL1        0.1442
     14 H         138.5631  141.3272  171.1968 H       1  UNL1        0.2923
     15 C         140.3849  139.1139  165.8965 C.2     1  UNL1        0.2462
     16 O         141.6008  138.7150  165.1139 O.2     1  UNL1       -0.2701
     17 N         139.0227  138.6889  165.4342 N.am    1  UNL1       -0.2969
     18 H         138.2247  138.9507  165.9478 H       1  UNL1        0.1501
     19 C         138.8764  137.8650  164.1892 C.3     1  UNL1        0.1166
     20 C         138.7418  138.5385  162.8557 C.ar    1  UNL1       -0.0026
     21 C         137.9170  139.7844  162.7245 C.ar    1  UNL1       -0.0026
     22 C         137.7824  140.4579  161.3909 C.ar    1  UNL1       -0.0003
     23 C         138.4727  139.8854  160.1886 C.ar    1  UNL1       -0.0000
     24 C         139.2975  138.6394  160.3197 C.ar    1  UNL1       -0.0003
     25 C         139.4321  137.9659  161.6532 C.ar    1  UNL1       -0.0026
@<TRIPOS>BOND
     1     1     2    1
     2     2     3   ar
     3     3     4   ar
     4     4     5   ar
     5     5     6    1
     6     5     7   ar
     7     7     8   ar
     8     8    15    1
     9    15    16    2
    10    15    17   am
    11    17    19    1
    12    19    20    1
    13    20    21   ar
    14    21    22   ar
    15    22    23   ar
    16    23    24   ar
    17    24    25   ar
    18     8     9   ar
    19     9    10   ar
    20    10    11   ar
    21    11     2   ar
    22    10     4   ar
    23    25    20   ar
    24     1    12    1
    25     1    13    1
    26     6    14    1
    27    17    18    1
@<TRIPOS>MOLECULE
*****
 25 27 0 0 0
SMALL
GASTEIGER

@<TRIPOS>ATOM
      1 N         144.7183  142.8582  170.2868 N.pl3   1  UNL1       -0.3375
      2 C         143.4718  142.2195  169.7499 C.ar    1  UNL1        0.1568
      3 N         142.4781  141.4224  170.5419 N.ar    1  UNL1       -0.2214
      4 C         141.3923  140.9759  169.6082 C.ar    1  UNL1        0.1227
      5 C         140.1515  140.1622  169.8278 C.ar    1  UNL1        0.1518
      6 O         139.8289  139.6411  171.1968 O.3     1  UNL1       -0.5040
      7 C         139.2333  139.8696  168.6782 C.ar    1  UNL1        0.0427
      8 C         139.5560  140.3907  167.3092 C.ar    1  UNL1        0.0570
      9 C         140.7968  141.2045  167.0896 C.ar    1  UNL1        0.0128
     10 C         141.7150  141.4971  168.2391 C.ar    1  UNL1        0.0528
     11 S         143.0001  142.2656  168.3267 S.2     1  UNL1       -0.0519
     12 H         144.9439  142.7716  171.2412 H       1  UNL1        0.1442
     13 H         145.3107  143.3641  169.6848 H       1  UNL1        0.1442
     14 H         140.4024  139.8238  171.9149 H       1  UNL1        0.2923
     15 C         138.6378  140.0981  166.1597 C.2     1  UNL1        0.2462
     16 O         137.7068  138.9238  166.2236 O.2     1  UNL1       -0.2701
     17 N         138.6508  140.9798  164.9463 N.am    1  UNL1       -0.2969
     18 H         139.2619  141.7506  164.9044 H       1  UNL1        0.1501
     19 C         137.7326  140.6872  163.7967 C.3     1  UNL1        0.1166
     20 C         138.2417  139.9353  162.6029 C.ar    1  UNL1       -0.0026
     21 C         137.8654  140.3793  161.2204 C.ar    1  UNL1       -0.0026
     22 C         138.3745  139.6272  160.0265 C.ar    1  UNL1       -0.0003
     23 C         139.2599  138.4312  160.2151 C.ar    1  UNL1       -0.0000
     24 C         139.6361  137.9872  161.5976 C.ar    1  UNL1       -0.0003
     25 C         139.1271  138.7391  162.7915 C.ar    1  UNL1       -0.0026
@<TRIPOS>BOND
     1     1     2    1
     2     2     3   ar
     3     3     4   ar
     4     4     5   ar
     5     5     6    1
     6     5     7   ar
     7     7     8   ar
     8     8    15    1
     9    15    16    2
    10    15    17   am
    11    17    19    1
    12    19    20    1
    13    20    21   ar
    14    21    22   ar
    15    22    23   ar
    16    23    24   ar
    17    24    25   ar
    18     8     9   ar
    19     9    10   ar
    20    10    11   ar
    21    11     2   ar
    22    10     4   ar
    23    25    20   ar
    24     1    12    1
    25     1    13    1
    26     6    14    1
    27    17    18    1
@<TRIPOS>MOLECULE
*****
 25 27 0 0 0
SMALL
GASTEIGER

@<TRIPOS>ATOM
      1 N         142.7922  144.6397  157.4136 N.pl3   1  UNL1       -0.3375
      2 C         142.1273  144.4471  158.7443 C.ar    1  UNL1        0.1568
      3 N         141.5358  145.5284  159.5992 N.ar    1  UNL1       -0.2214
      4 C         140.9801  144.8890  160.8370 C.ar    1  UNL1        0.1227
      5 C         140.2803  145.4605  162.0343 C.ar    1  UNL1        0.1518
      6 O         140.0323  146.9371  162.1241 O.3     1  UNL1       -0.5040
      7 C         139.8284  144.5553  163.1419 C.ar    1  UNL1        0.0427
      8 C         140.0764  143.0787  163.0520 C.ar    1  UNL1        0.0570
      9 C         140.7763  142.5072  161.8546 C.ar    1  UNL1        0.0128
     10 C         141.2281  143.4123  160.7472 C.ar    1  UNL1        0.0528
     11 S         141.9371  143.1393  159.4538 S.2     1  UNL1       -0.0519
     12 H         142.8694  145.5422  157.0279 H       1  UNL1        0.1442
     13 H         143.1514  143.8636  156.9258 H       1  UNL1        0.1442
     14 H         140.3145  147.5025  161.4323 H       1  UNL1        0.2923
     15 C         139.6246  142.1736  164.1595 C.2     1  UNL1        0.2462
     16 O         138.1716  142.1038  164.5255 O.2     1  UNL1       -0.2701
     17 N         140.6258  141.3383  164.9010 N.am    1  UNL1       -0.2969
     18 H         141.5794  141.3841  164.6608 H       1  UNL1        0.1501
     19 C         140.1740  140.4331  166.0086 C.3     1  UNL1        0.1166
     20 C         140.0333  140.9669  167.4032 C.ar    1  UNL1       -0.0026
     21 C         140.5022  142.3547  167.7260 C.ar    1  UNL1       -0.0026
     22 C         140.3615  142.8885  169.1208 C.ar    1  UNL1       -0.0003
     23 C         139.7520  142.0345  170.1927 C.ar    1  UNL1       -0.0000
     24 C         139.2831  140.6467  169.8700 C.ar    1  UNL1       -0.0003
     25 C         139.4238  140.1129  168.4753 C.ar    1  UNL1       -0.0026
@<TRIPOS>BOND
     1     1     2    1
     2     2     3   ar
     3     3     4   ar
     4     4     5   ar
     5     5     6    1
     6     5     7   ar
     7     7     8   ar
     8     8    15    1
     9    15    16    2
    10    15    17   am
    11    17    19    1
    12    19    20    1
    13    20    21   ar
    14    21    22   ar
    15    22    23   ar
    16    23    24   ar
    17    24    25   ar
    18     8     9   ar
    19     9    10   ar
    20    10    11   ar
    21    11     2   ar
    22    10     4   ar
    23    25    20   ar
    24     1    12    1
    25     1    13    1
    26     6    14    1
    27    17    18    1
@<TRIPOS>MOLECULE
*****
 25 27 0 0 0
SMALL
GASTEIGER

@<TRIPOS>ATOM
      1 N         142.6955  144.6818  157.0293 N.pl3   1  UNL1       -0.3375
      2 C         142.2908  144.4938  158.4614 C.ar    1  UNL1        0.1568
      3 N         141.5384  145.4823  159.3020 N.ar    1  UNL1       -0.2214
      4 C         141.3500  144.8838  160.6645 C.ar    1  UNL1        0.1227
      5 C         140.6815  145.4002  161.9039 C.ar    1  UNL1        0.1518
      6 O         140.0454  146.7586  161.9025 O.3     1  UNL1       -0.5040
      7 C         140.6491  144.5582  163.1449 C.ar    1  UNL1        0.0427
      8 C         141.2852  143.1997  163.1464 C.ar    1  UNL1        0.0570
      9 C         141.9537  142.6833  161.9068 C.ar    1  UNL1        0.0128
     10 C         141.9861  143.5253  160.6659 C.ar    1  UNL1        0.0528
     11 S         142.5676  143.2844  159.3043 S.2     1  UNL1       -0.0519
     12 H         142.4668  145.5156  156.5585 H       1  UNL1        0.1442
     13 H         143.1899  143.9714  156.5601 H       1  UNL1        0.1442
     14 H         140.0657  147.2846  161.1273 H       1  UNL1        0.2923
     15 C         141.2528  142.3577  164.3873 C.2     1  UNL1        0.2462
     16 O         142.1205  141.1384  164.4892 O.2     1  UNL1       -0.2701
     17 N         140.3527  142.7351  165.5264 N.am    1  UNL1       -0.2969
     18 H         139.7833  143.5354  165.4595 H       1  UNL1        0.1501
     19 C         140.3203  141.8930  166.7674 C.3     1  UNL1        0.1166
     20 C         141.1293  142.2920  167.9658 C.ar    1  UNL1       -0.0026
     21 C         140.5186  143.1560  169.0291 C.ar    1  UNL1       -0.0026
     22 C         141.3277  143.5550  170.2276 C.ar    1  UNL1       -0.0003
     23 C         142.7474  143.0900  170.3627 C.ar    1  UNL1       -0.0000
     24 C         143.3581  142.2261  169.2993 C.ar    1  UNL1       -0.0003
     25 C         142.5491  141.8271  168.1009 C.ar    1  UNL1       -0.0026
@<TRIPOS>BOND
     1     1     2    1
     2     2     3   ar
     3     3     4   ar
     4     4     5   ar
     5     5     6    1
     6     5     7   ar
     7     7     8   ar
     8     8    15    1
     9    15    16    2
    10    15    17   am
    11    17    19    1
    12    19    20    1
    13    20    21   ar
    14    21    22   ar
    15    22    23   ar
    16    23    24   ar
    17    24    25   ar
    18     8     9   ar
    19     9    10   ar
    20    10    11   ar
    21    11     2   ar
    22    10     4   ar
    23    25    20   ar
    24     1    12    1
    25     1    13    1
    26     6    14    1
    27    17    18    1
@<TRIPOS>MOLECULE
*****
 25 27 0 0 0
SMALL
GASTEIGER

@<TRIPOS>ATOM
      1 N         142.9283  144.3703  157.8106 N.pl3   1  UNL1       -0.3375
      2 C         142.2402  144.3136  159.1422 C.ar    1  UNL1        0.1568
      3 N         141.4317  145.4132  159.7645 N.ar    1  UNL1       -0.2214
      4 C         140.9317  144.9266  161.0923 C.ar    1  UNL1        0.1227
      5 C         140.0861  145.5777  162.1463 C.ar    1  UNL1        0.1518
      6 O         139.5866  146.9781  161.9479 O.3     1  UNL1       -0.5040
      7 C         139.7400  144.8284  163.3989 C.ar    1  UNL1        0.0427
      8 C         140.2394  143.4280  163.5973 C.ar    1  UNL1        0.0570
      9 C         141.0851  142.7769  162.5432 C.ar    1  UNL1        0.0128
     10 C         141.4312  143.5262  161.2908 C.ar    1  UNL1        0.0528
     11 S         142.2399  143.1474  160.0855 S.2     1  UNL1       -0.0519
     12 H         142.8702  145.1849  157.2608 H       1  UNL1        0.1442
     13 H         143.4380  143.5929  157.4863 H       1  UNL1        0.1442
     14 H         139.8029  147.4462  161.1655 H       1  UNL1        0.2923
     15 C         139.8933  142.6787  164.8498 C.2     1  UNL1        0.2462
     16 O         139.8567  143.3956  166.1668 O.2     1  UNL1       -0.2701
     17 N         139.5839  141.2124  164.7852 N.am    1  UNL1       -0.2969
     18 H         139.6080  140.7418  163.9208 H       1  UNL1        0.1501
     19 C         139.2378  140.4630  166.0377 C.3     1  UNL1        0.1166
     20 C         140.3108  140.1234  167.0293 C.ar    1  UNL1       -0.0026
     21 C         141.6726  139.7156  166.5505 C.ar    1  UNL1       -0.0026
     22 C         142.7457  139.3760  167.5422 C.ar    1  UNL1       -0.0003
     23 C         142.4569  139.4442  169.0125 C.ar    1  UNL1       -0.0000
     24 C         141.0951  139.8520  169.4913 C.ar    1  UNL1       -0.0003
     25 C         140.0221  140.1916  168.4997 C.ar    1  UNL1       -0.0026
@<TRIPOS>BOND
     1     1     2    1
     2     2     3   ar
     3     3     4   ar
     4     4     5   ar
     5     5     6    1
     6     5     7   ar
     7     7     8   ar
     8     8    15    1
     9    15    16    2
    10    15    17   am
    11    17    19    1
    12    19    20    1
    13    20    21   ar
    14    21    22   ar
    15    22    23   ar
    16    23    24   ar
    17    24    25   ar
    18     8     9   ar
    19     9    10   ar
    20    10    11   ar
    21    11     2   ar
    22    10     4   ar
    23    25    20   ar
    24     1    12    1
    25     1    13    1
    26     6    14    1
    27    17    18    1
@<TRIPOS>MOLECULE
*****
 25 27 0 0 0
SMALL
GASTEIGER

@<TRIPOS>ATOM
      1 N         143.9126  139.2886  171.4936 N.pl3   1  UNL1       -0.3375
      2 C         143.0455  140.0384  170.5262 C.ar    1  UNL1        0.1568
      3 N         142.4787  141.4119  170.7318 N.ar    1  UNL1       -0.2214
      4 C         141.6758  141.7688  169.5160 C.ar    1  UNL1        0.1227
      5 C         140.8896  142.9946  169.1567 C.ar    1  UNL1        0.1518
      6 O         140.8189  144.1475  170.1137 O.3     1  UNL1       -0.5040
      7 C         140.1740  143.0675  167.8404 C.ar    1  UNL1        0.0427
      8 C         140.2446  141.9146  166.8834 C.ar    1  UNL1        0.0570
      9 C         141.0309  140.6888  167.2428 C.ar    1  UNL1        0.0128
     10 C         141.7465  140.6159  168.5590 C.ar    1  UNL1        0.0528
     11 S         142.5930  139.5465  169.1834 S.2     1  UNL1       -0.0519
     12 H         144.1570  139.6978  172.3551 H       1  UNL1        0.1442
     13 H         144.2374  138.3872  171.2672 H       1  UNL1        0.1442
     14 H         141.2659  144.1020  170.9359 H       1  UNL1        0.2923
     15 C         139.5291  141.9875  165.5672 C.2     1  UNL1        0.2462
     16 O         139.8215  143.1096  164.6156 O.2     1  UNL1       -0.2701
     17 N         138.5210  140.9383  165.2024 N.am    1  UNL1       -0.2969
     18 H         138.3291  140.2019  165.8270 H       1  UNL1        0.1501
     19 C         137.8054  141.0112  163.8861 C.3     1  UNL1        0.1166
     20 C         138.2256  140.1218  162.7538 C.ar    1  UNL1       -0.0026
     21 C         138.9526  138.8405  163.0364 C.ar    1  UNL1       -0.0026
     22 C         139.3728  137.9510  161.9040 C.ar    1  UNL1       -0.0003
     23 C         139.0660  138.3428  160.4890 C.ar    1  UNL1       -0.0000
     24 C         138.3390  139.6241  160.2063 C.ar    1  UNL1       -0.0003
     25 C         137.9188  140.5135  161.3386 C.ar    1  UNL1       -0.0026
@<TRIPOS>BOND
     1     1     2    1
     2     2     3   ar
     3     3     4   ar
     4     4     5   ar
     5     5     6    1
     6     5     7   ar
     7     7     8   ar
     8     8    15    1
     9    15    16    2
    10    15    17   am
    11    17    19    1
    12    19    20    1
    13    20    21   ar
    14    21    22   ar
    15    22    23   ar
    16    23    24   ar
    17    24    25   ar
    18     8     9   ar
    19     9    10   ar
    20    10    11   ar
    21    11     2   ar
    22    10     4   ar
    23    25    20   ar
    24     1    12    1
    25     1    13    1
    26     6    14    1
    27    17    18    1
@<TRIPOS>MOLECULE
*****
 25 27 0 0 0
SMALL
GASTEIGER

@<TRIPOS>ATOM
      1 N         140.4615  140.9449  171.4067 N.pl3   1  UNL1       -0.3375
      2 C         140.0279  140.7053  169.9909 C.ar    1  UNL1        0.1568
      3 N         139.0213  139.6901  169.5368 N.ar    1  UNL1       -0.2214
      4 C         138.8960  139.7962  168.0458 C.ar    1  UNL1        0.1227
      5 C         138.0559  139.0483  167.0535 C.ar    1  UNL1        0.1518
      6 O         137.1266  137.9676  167.5209 O.3     1  UNL1       -0.5040
      7 C         138.1449  139.3812  165.5935 C.ar    1  UNL1        0.0427
      8 C         139.0742  140.4619  165.1260 C.ar    1  UNL1        0.0570
      9 C         139.9143  141.2098  166.1185 C.ar    1  UNL1        0.0128
     10 C         139.8252  140.8769  167.5783 C.ar    1  UNL1        0.0528
     11 S         140.5248  141.4387  168.7804 S.2     1  UNL1       -0.0519
     12 H         140.0756  140.4092  172.1370 H       1  UNL1        0.1442
     13 H         141.1320  141.6378  171.6056 H       1  UNL1        0.1442
     14 H         137.0710  137.7597  168.4329 H       1  UNL1        0.2923
     15 C         139.1633  140.7948  163.6662 C.2     1  UNL1        0.2462
     16 O         140.3558  140.3569  162.8685 O.2     1  UNL1       -0.2701
     17 N         138.0599  141.5655  163.0040 N.am    1  UNL1       -0.2969
     18 H         137.2772  141.8528  163.5276 H       1  UNL1        0.1501
     19 C         138.1490  141.8984  161.5441 C.3     1  UNL1        0.1166
     20 C         138.9466  143.0859  161.0929 C.ar    1  UNL1       -0.0026
     21 C         139.1980  144.2234  162.0378 C.ar    1  UNL1       -0.0026
     22 C         139.9956  145.4110  161.5866 C.ar    1  UNL1       -0.0003
     23 C         140.5419  145.4609  160.1905 C.ar    1  UNL1       -0.0000
     24 C         140.2906  144.3234  159.2456 C.ar    1  UNL1       -0.0003
     25 C         139.4929  143.1359  159.6968 C.ar    1  UNL1       -0.0026
@<TRIPOS>BOND
     1     1     2    1
     2     2     3   ar
     3     3     4   ar
     4     4     5   ar
     5     5     6    1
     6     5     7   ar
     7     7     8   ar
     8     8    15    1
     9    15    16    2
    10    15    17   am
    11    17    19    1
    12    19    20    1
    13    20    21   ar
    14    21    22   ar
    15    22    23   ar
    16    23    24   ar
    17    24    25   ar
    18     8     9   ar
    19     9    10   ar
    20    10    11   ar
    21    11     2   ar
    22    10     4   ar
    23    25    20   ar
    24     1    12    1
    25     1    13    1
    26     6    14    1
    27    17    18    1
@<TRIPOS>MOLECULE
*****
 25 27 0 0 0
SMALL
GASTEIGER

@<TRIPOS>ATOM
      1 N         142.7804  144.6545  156.9242 N.pl3   1  UNL1       -0.3375
      2 C         142.1809  144.5510  158.2954 C.ar    1  UNL1        0.1568
      3 N         141.2361  145.5338  158.9210 N.ar    1  UNL1       -0.2214
      4 C         140.8923  145.0368  160.2939 C.ar    1  UNL1        0.1227
      5 C         140.0070  145.5921  161.3699 C.ar    1  UNL1        0.1518
      6 O         139.2746  146.8821  161.1471 O.3     1  UNL1       -0.5040
      7 C         139.8541  144.8575  162.6688 C.ar    1  UNL1        0.0427
      8 C         140.5865  143.5676  162.8916 C.ar    1  UNL1        0.0570
      9 C         141.4718  143.0122  161.8156 C.ar    1  UNL1        0.0128
     10 C         141.6247  143.7468  160.5168 C.ar    1  UNL1        0.0528
     11 S         142.4211  143.4467  159.2816 S.2     1  UNL1       -0.0519
     12 H         142.5608  145.4217  156.3476 H       1  UNL1        0.1442
     13 H         143.3934  143.9553  156.6009 H       1  UNL1        0.1442
     14 H         139.3701  147.3409  160.3357 H       1  UNL1        0.2923
     15 C         140.4336  142.8330  164.1904 C.2     1  UNL1        0.2462
     16 O         139.4063  143.2794  165.1882 O.2     1  UNL1       -0.2701
     17 N         141.3080  141.6520  164.4916 N.am    1  UNL1       -0.2969
     18 H         141.9822  141.3591  163.8367 H       1  UNL1        0.1501
     19 C         141.1551  140.9174  165.7904 C.3     1  UNL1        0.1166
     20 C         140.1183  139.8420  165.9263 C.ar    1  UNL1       -0.0026
     21 C         139.1251  139.8954  167.0491 C.ar    1  UNL1       -0.0026
     22 C         138.0882  138.8199  167.1850 C.ar    1  UNL1       -0.0003
     23 C         138.0446  137.6912  166.1981 C.ar    1  UNL1       -0.0000
     24 C         139.0377  137.6379  165.0752 C.ar    1  UNL1       -0.0003
     25 C         140.0746  138.7132  164.9394 C.ar    1  UNL1       -0.0026
@<TRIPOS>BOND
     1     1     2    1
     2     2     3   ar
     3     3     4   ar
     4     4     5   ar
     5     5     6    1
     6     5     7   ar
     7     7     8   ar
     8     8    15    1
     9    15    16    2
    10    15    17   am
    11    17    19    1
    12    19    20    1
    13    20    21   ar
    14    21    22   ar
    15    22    23   ar
    16    23    24   ar
    17    24    25   ar
    18     8     9   ar
    19     9    10   ar
    20    10    11   ar
    21    11     2   ar
    22    10     4   ar
    23    25    20   ar
    24     1    12    1
    25     1    13    1
    26     6    14    1
    27    17    18    1
@<TRIPOS>MOLECULE
*****
 25 27 0 0 0
SMALL
GASTEIGER

@<TRIPOS>ATOM
      1 N         137.0172  137.4094  167.3708 N.pl3   1  UNL1       -0.3375
      2 C         137.9181  138.5886  167.1523 C.ar    1  UNL1        0.1568
      3 N         138.6654  139.3364  168.2164 N.ar    1  UNL1       -0.2214
      4 C         139.4391  140.4370  167.5531 C.ar    1  UNL1        0.1227
      5 C         140.3538  141.4920  168.1009 C.ar    1  UNL1        0.1518
      6 O         140.6229  141.5596  169.5750 O.3     1  UNL1       -0.5040
      7 C         140.9996  142.4795  167.1746 C.ar    1  UNL1        0.0427
      8 C         140.7305  142.4119  165.7005 C.ar    1  UNL1        0.0570
      9 C         139.8157  141.3568  165.1527 C.ar    1  UNL1        0.0128
     10 C         139.1700  140.3694  166.0790 C.ar    1  UNL1        0.0528
     11 S         138.2300  139.2270  165.8313 S.2     1  UNL1       -0.0519
     12 H         136.8744  137.0608  168.2804 H       1  UNL1        0.1442
     13 H         136.5686  136.9840  166.6047 H       1  UNL1        0.1442
     14 H         140.2196  140.9428  170.1536 H       1  UNL1        0.2923
     15 C         141.3762  143.3993  164.7741 C.2     1  UNL1        0.2462
     16 O         142.8658  143.5751  164.7854 O.2     1  UNL1       -0.2701
     17 N         140.5322  144.2109  163.8366 N.am    1  UNL1       -0.2969
     18 H         139.5545  144.0955  163.8293 H       1  UNL1        0.1501
     19 C         141.1779  145.1984  162.9103 C.3     1  UNL1        0.1166
     20 C         141.2793  144.8963  161.4445 C.ar    1  UNL1       -0.0026
     21 C         140.3649  145.5812  160.4726 C.ar    1  UNL1       -0.0026
     22 C         140.4664  145.2791  159.0068 C.ar    1  UNL1       -0.0003
     23 C         141.4823  144.2921  158.5130 C.ar    1  UNL1       -0.0000
     24 C         142.3967  143.6073  159.4850 C.ar    1  UNL1       -0.0003
     25 C         142.2953  143.9093  160.9507 C.ar    1  UNL1       -0.0026
@<TRIPOS>BOND
     1     1     2    1
     2     2     3   ar
     3     3     4   ar
     4     4     5   ar
     5     5     6    1
     6     5     7   ar
     7     7     8   ar
     8     8    15    1
     9    15    16    2
    10    15    17   am
    11    17    19    1
    12    19    20    1
    13    20    21   ar
    14    21    22   ar
    15    22    23   ar
    16    23    24   ar
    17    24    25   ar
    18     8     9   ar
    19     9    10   ar
    20    10    11   ar
    21    11     2   ar
    22    10     4   ar
    23    25    20   ar
    24     1    12    1
    25     1    13    1
    26     6    14    1
    27    17    18    1
