@<TRIPOS>MOLECULE
*****
 16 17 0 0 0
SMALL
GASTEIGER

@<TRIPOS>ATOM
      1 C         138.7527  139.0072  166.2592 C.3     1  UNL1        0.1099
      2 C         139.3879  140.2151  166.8818 C.ar    1  UNL1       -0.0053
      3 C         139.6412  140.2515  168.3598 C.ar    1  UNL1       -0.0029
      4 C         140.2764  141.4593  168.9824 C.ar    1  UNL1       -0.0003
      5 C         140.6583  142.6308  168.1269 C.ar    1  UNL1       -0.0000
      6 C         140.4051  142.5944  166.6489 C.ar    1  UNL1       -0.0003
      7 C         139.7699  141.3866  166.0264 C.ar    1  UNL1       -0.0029
      8 N         139.2985  138.4490  164.9784 N.3     1  UNL1       -0.2640
      9 C         138.5274  138.6089  163.7017 C.3     1  UNL1        0.1049
     10 C         139.0733  138.0508  162.4209 C.3     1  UNL1        0.1595
     11 O         140.3902  137.3327  162.4167 O.3     1  UNL1       -0.3508
     12 C         141.1613  137.1727  163.6934 C.3     1  UNL1        0.1595
     13 C         140.6155  137.7309  164.9742 C.3     1  UNL1        0.1049
     14 O         137.4749  136.8618  166.9765 O.3     1  UNL1       -0.3802
     15 C         137.5718  138.3576  166.9174 C.3     1  UNL1        0.1575
     16 H         136.6567  136.6086  167.4318 H       1  UNL1        0.2105
@<TRIPOS>BOND
     1    14    15    1
     2    15     1    1
     3     1     2    1
     4     2     3   ar
     5     3     4   ar
     6     4     5   ar
     7     5     6   ar
     8     6     7   ar
     9     1     8    1
    10     8     9    1
    11     9    10    1
    12    10    11    1
    13    11    12    1
    14    12    13    1
    15     7     2   ar
    16    13     8    1
    17    14    16    1
@<TRIPOS>MOLECULE
*****
 16 17 0 0 0
SMALL
GASTEIGER

@<TRIPOS>ATOM
      1 C         138.6984  139.7303  165.3857 C.3     1  UNL1        0.1099
      2 C         138.8144  141.2247  165.3244 C.ar    1  UNL1       -0.0053
      3 C         137.8269  142.0213  164.5244 C.ar    1  UNL1       -0.0029
      4 C         137.9429  143.5156  164.4631 C.ar    1  UNL1       -0.0003
      5 C         139.0464  144.2131  165.2018 C.ar    1  UNL1       -0.0000
      6 C         140.0340  143.4164  166.0018 C.ar    1  UNL1       -0.0003
      7 C         139.9179  141.9222  166.0631 C.ar    1  UNL1       -0.0029
      8 N         139.3757  138.8824  164.3502 N.3     1  UNL1       -0.2640
      9 C         140.6126  138.1113  164.7042 C.3     1  UNL1        0.1049
     10 C         141.2899  137.2634  163.6687 C.3     1  UNL1        0.1595
     11 O         140.7303  137.1866  162.2791 O.3     1  UNL1       -0.3508
     12 C         139.4933  137.9578  161.9250 C.3     1  UNL1        0.1595
     13 C         138.8160  138.8057  162.9606 C.3     1  UNL1        0.1049
     14 O         138.4111  139.1183  167.8943 O.3     1  UNL1       -0.3802
     15 C         137.9052  139.0840  166.4825 C.3     1  UNL1        0.1575
     16 H         137.7836  138.6586  168.4738 H       1  UNL1        0.2105
@<TRIPOS>BOND
     1    14    15    1
     2    15     1    1
     3     1     2    1
     4     2     3   ar
     5     3     4   ar
     6     4     5   ar
     7     5     6   ar
     8     6     7   ar
     9     1     8    1
    10     8     9    1
    11     9    10    1
    12    10    11    1
    13    11    12    1
    14    12    13    1
    15     7     2   ar
    16    13     8    1
    17    14    16    1
@<TRIPOS>MOLECULE
*****
 16 17 0 0 0
SMALL
GASTEIGER

@<TRIPOS>ATOM
      1 C         139.2949  140.1179  166.1093 C.3     1  UNL1        0.1099
      2 C         139.0891  141.4858  165.5291 C.ar    1  UNL1       -0.0053
      3 C         137.9853  141.7234  164.5417 C.ar    1  UNL1       -0.0029
      4 C         137.7795  143.0912  163.9616 C.ar    1  UNL1       -0.0003
      5 C         138.6776  144.2215  164.3689 C.ar    1  UNL1       -0.0000
      6 C         139.7814  143.9839  165.3564 C.ar    1  UNL1       -0.0003
      7 C         139.9871  142.6161  165.9365 C.ar    1  UNL1       -0.0029
      8 N         140.5018  139.8353  166.9539 N.3     1  UNL1       -0.2640
      9 C         141.7645  139.3378  166.3151 C.3     1  UNL1        0.1049
     10 C         142.9714  139.0552  167.1597 C.3     1  UNL1        0.1595
     11 O         142.9157  139.2700  168.6431 O.3     1  UNL1       -0.3508
     12 C         141.6530  139.7676  169.2821 C.3     1  UNL1        0.1595
     13 C         140.4461  140.0502  168.4375 C.3     1  UNL1        0.1049
     14 O         137.3607  138.5914  166.9334 O.3     1  UNL1       -0.3802
     15 C         138.2937  139.0327  165.8449 C.3     1  UNL1        0.1575
     16 H         136.7832  137.8876  166.5987 H       1  UNL1        0.2105
@<TRIPOS>BOND
     1    14    15    1
     2    15     1    1
     3     1     2    1
     4     2     3   ar
     5     3     4   ar
     6     4     5   ar
     7     5     6   ar
     8     6     7   ar
     9     1     8    1
    10     8     9    1
    11     9    10    1
    12    10    11    1
    13    11    12    1
    14    12    13    1
    15     7     2   ar
    16    13     8    1
    17    14    16    1
@<TRIPOS>MOLECULE
*****
 16 17 0 0 0
SMALL
GASTEIGER

@<TRIPOS>ATOM
      1 C         141.2560  140.9121  167.4186 C.3     1  UNL1        0.1099
      2 C         140.3773  139.8857  166.7670 C.ar    1  UNL1       -0.0053
      3 C         140.8985  139.0714  165.6202 C.ar    1  UNL1       -0.0029
      4 C         140.0197  138.0450  164.9687 C.ar    1  UNL1       -0.0003
      5 C         138.6199  137.8330  165.4641 C.ar    1  UNL1       -0.0000
      6 C         138.0987  138.6473  166.6110 C.ar    1  UNL1       -0.0003
      7 C         138.9775  139.6736  167.2624 C.ar    1  UNL1       -0.0029
      8 N         140.9986  141.3285  168.8364 N.3     1  UNL1       -0.2640
      9 C         141.4585  140.4590  169.9688 C.3     1  UNL1        0.1049
     10 C         141.2011  140.8755  171.3866 C.3     1  UNL1        0.1595
     11 O         140.4837  142.1615  171.6721 O.3     1  UNL1       -0.3508
     12 C         140.0237  143.0311  170.5396 C.3     1  UNL1        0.1595
     13 C         140.2812  142.6146  169.1218 C.3     1  UNL1        0.1049
     14 O         143.3697  142.4212  167.3492 O.3     1  UNL1       -0.3802
     15 C         142.3922  141.5219  166.6522 C.3     1  UNL1        0.1575
     16 H         144.0362  142.7279  166.7146 H       1  UNL1        0.2105
@<TRIPOS>BOND
     1    14    15    1
     2    15     1    1
     3     1     2    1
     4     2     3   ar
     5     3     4   ar
     6     4     5   ar
     7     5     6   ar
     8     6     7   ar
     9     1     8    1
    10     8     9    1
    11     9    10    1
    12    10    11    1
    13    11    12    1
    14    12    13    1
    15     7     2   ar
    16    13     8    1
    17    14    16    1
@<TRIPOS>MOLECULE
*****
 16 17 0 0 0
SMALL
GASTEIGER

@<TRIPOS>ATOM
      1 C         139.2826  140.1473  166.0729 C.3     1  UNL1        0.1099
      2 C         139.0799  141.5204  165.5039 C.ar    1  UNL1       -0.0053
      3 C         139.9762  142.6468  165.9254 C.ar    1  UNL1       -0.0029
      4 C         139.7734  144.0197  165.3564 C.ar    1  UNL1       -0.0003
      5 C         138.6743  144.2663  164.3659 C.ar    1  UNL1       -0.0000
      6 C         137.7779  143.1399  163.9444 C.ar    1  UNL1       -0.0003
      7 C         137.9807  141.7670  164.5134 C.ar    1  UNL1       -0.0029
      8 N         140.4975  139.8506  166.9011 N.3     1  UNL1       -0.2640
      9 C         140.4634  140.0632  168.3855 C.3     1  UNL1        0.1049
     10 C         141.6783  139.7665  169.2138 C.3     1  UNL1        0.1595
     11 O         142.9273  139.2572  168.5576 O.3     1  UNL1       -0.3508
     12 C         142.9614  139.0445  167.0731 C.3     1  UNL1        0.1595
     13 C         141.7465  139.3412  166.2449 C.3     1  UNL1        0.1049
     14 O         137.3741  138.6019  166.9211 O.3     1  UNL1       -0.3802
     15 C         138.2705  139.0711  165.8136 C.3     1  UNL1        0.1575
     16 H         136.7839  137.9082  166.5874 H       1  UNL1        0.2105
@<TRIPOS>BOND
     1    14    15    1
     2    15     1    1
     3     1     2    1
     4     2     3   ar
     5     3     4   ar
     6     4     5   ar
     7     5     6   ar
     8     6     7   ar
     9     1     8    1
    10     8     9    1
    11     9    10    1
    12    10    11    1
    13    11    12    1
    14    12    13    1
    15     7     2   ar
    16    13     8    1
    17    14    16    1
@<TRIPOS>MOLECULE
*****
 16 17 0 0 0
SMALL
GASTEIGER

@<TRIPOS>ATOM
      1 C         141.3211  140.8525  167.3590 C.3     1  UNL1        0.1099
      2 C         140.4374  139.8353  166.6996 C.ar    1  UNL1       -0.0053
      3 C         139.0190  139.6651  167.1569 C.ar    1  UNL1       -0.0029
      4 C         138.1355  138.6480  166.4975 C.ar    1  UNL1       -0.0003
      5 C         138.6703  137.8012  165.3809 C.ar    1  UNL1       -0.0000
      6 C         140.0886  137.9715  164.9236 C.ar    1  UNL1       -0.0003
      7 C         140.9722  138.9885  165.5830 C.ar    1  UNL1       -0.0029
      8 N         141.0059  141.3345  168.7440 N.3     1  UNL1       -0.2640
      9 C         140.3655  142.6761  168.9436 C.3     1  UNL1        0.1049
     10 C         140.0503  143.1581  170.3286 C.3     1  UNL1        0.1595
     11 O         140.3756  142.2985  171.5141 O.3     1  UNL1       -0.3508
     12 C         141.0161  140.9568  171.3145 C.3     1  UNL1        0.1595
     13 C         141.3313  140.4748  169.9295 C.3     1  UNL1        0.1049
     14 O         143.4076  142.3993  167.2954 O.3     1  UNL1       -0.3802
     15 C         142.5199  141.3875  166.6333 C.3     1  UNL1        0.1575
     16 H         144.1304  142.6379  166.6942 H       1  UNL1        0.2105
@<TRIPOS>BOND
     1    14    15    1
     2    15     1    1
     3     1     2    1
     4     2     3   ar
     5     3     4   ar
     6     4     5   ar
     7     5     6   ar
     8     6     7   ar
     9     1     8    1
    10     8     9    1
    11     9    10    1
    12    10    11    1
    13    11    12    1
    14    12    13    1
    15     7     2   ar
    16    13     8    1
    17    14    16    1
@<TRIPOS>MOLECULE
*****
 16 17 0 0 0
SMALL
GASTEIGER

@<TRIPOS>ATOM
      1 C         138.8909  139.2009  165.5482 C.3     1  UNL1        0.1099
      2 C         140.3617  139.1038  165.8266 C.ar    1  UNL1       -0.0053
      3 C         140.9670  139.8972  166.9464 C.ar    1  UNL1       -0.0029
      4 C         142.4377  139.8001  167.2248 C.ar    1  UNL1       -0.0003
      5 C         143.3031  138.9095  166.3834 C.ar    1  UNL1       -0.0000
      6 C         142.6978  138.1161  165.2636 C.ar    1  UNL1       -0.0003
      7 C         141.2271  138.2133  164.9852 C.ar    1  UNL1       -0.0029
      8 N         138.3941  140.0790  164.4381 N.3     1  UNL1       -0.2640
      9 C         138.1913  139.5098  163.0652 C.3     1  UNL1        0.1049
     10 C         137.6945  140.3879  161.9552 C.3     1  UNL1        0.1595
     11 O         137.4006  141.8351  162.2180 O.3     1  UNL1       -0.3508
     12 C         137.6034  142.4043  163.5910 C.3     1  UNL1        0.1595
     13 C         138.1002  141.5262  164.7010 C.3     1  UNL1        0.1049
     14 O         137.7528  138.7358  167.8369 O.3     1  UNL1       -0.3802
     15 C         137.9170  138.4199  166.3797 C.3     1  UNL1        0.1575
     16 H         137.0895  138.1429  168.2236 H       1  UNL1        0.2105
@<TRIPOS>BOND
     1    14    15    1
     2    15     1    1
     3     1     2    1
     4     2     3   ar
     5     3     4   ar
     6     4     5   ar
     7     5     6   ar
     8     6     7   ar
     9     1     8    1
    10     8     9    1
    11     9    10    1
    12    10    11    1
    13    11    12    1
    14    12    13    1
    15     7     2   ar
    16    13     8    1
    17    14    16    1
@<TRIPOS>MOLECULE
*****
 16 17 0 0 0
SMALL
GASTEIGER

@<TRIPOS>ATOM
      1 C         140.5317  141.7494  166.4484 C.3     1  UNL1        0.1099
      2 C         139.6159  142.4943  165.5229 C.ar    1  UNL1       -0.0053
      3 C         138.5157  141.7658  164.8096 C.ar    1  UNL1       -0.0029
      4 C         137.6000  142.5106  163.8842 C.ar    1  UNL1       -0.0003
      5 C         137.7844  143.9841  163.6720 C.ar    1  UNL1       -0.0000
      6 C         138.8845  144.7126  164.3853 C.ar    1  UNL1       -0.0003
      7 C         139.8003  143.9677  165.3107 C.ar    1  UNL1       -0.0029
      8 N         140.2340  141.6986  167.9177 N.3     1  UNL1       -0.2640
      9 C         139.6599  140.4525  168.5239 C.3     1  UNL1        0.1049
     10 C         139.3621  140.4016  169.9932 C.3     1  UNL1        0.1595
     11 O         139.6385  141.5969  170.8562 O.3     1  UNL1       -0.3508
     12 C         140.2127  142.8431  170.2500 C.3     1  UNL1        0.1595
     13 C         140.5104  142.8939  168.7807 C.3     1  UNL1        0.1049
     14 O         142.8621  140.6648  166.8267 O.3     1  UNL1       -0.3802
     15 C         141.7452  141.0555  165.9046 C.3     1  UNL1        0.1575
     16 H         143.5641  140.2296  166.3180 H       1  UNL1        0.2105
@<TRIPOS>BOND
     1    14    15    1
     2    15     1    1
     3     1     2    1
     4     2     3   ar
     5     3     4   ar
     6     4     5   ar
     7     5     6   ar
     8     6     7   ar
     9     1     8    1
    10     8     9    1
    11     9    10    1
    12    10    11    1
    13    11    12    1
    14    12    13    1
    15     7     2   ar
    16    13     8    1
    17    14    16    1
@<TRIPOS>MOLECULE
*****
 16 17 0 0 0
SMALL
GASTEIGER

@<TRIPOS>ATOM
      1 C         139.1280  140.1772  166.1968 C.3     1  UNL1        0.1099
      2 C         140.2120  139.9588  167.2104 C.ar    1  UNL1       -0.0053
      3 C         139.9106  140.0996  168.6730 C.ar    1  UNL1       -0.0029
      4 C         140.9946  139.8812  169.6865 C.ar    1  UNL1       -0.0003
      5 C         142.3799  139.5220  169.2374 C.ar    1  UNL1       -0.0000
      6 C         142.6814  139.3812  167.7748 C.ar    1  UNL1       -0.0003
      7 C         141.5974  139.5996  166.7613 C.ar    1  UNL1       -0.0029
      8 N         139.0089  141.4999  165.4993 N.3     1  UNL1       -0.2640
      9 C         137.9930  141.6853  164.4114 C.3     1  UNL1        0.1049
     10 C         137.8739  143.0079  163.7139 C.3     1  UNL1        0.1595
     11 O         138.7707  144.1451  164.1042 O.3     1  UNL1       -0.3508
     12 C         139.7868  143.9597  165.1921 C.3     1  UNL1        0.1595
     13 C         139.9059  142.6371  165.8896 C.3     1  UNL1        0.1049
     14 O         137.3351  138.4649  166.9736 O.3     1  UNL1       -0.3802
     15 C         138.1632  139.0731  165.8807 C.3     1  UNL1        0.1575
     16 H         136.7689  137.7706  166.6020 H       1  UNL1        0.2105
@<TRIPOS>BOND
     1    14    15    1
     2    15     1    1
     3     1     2    1
     4     2     3   ar
     5     3     4   ar
     6     4     5   ar
     7     5     6   ar
     8     6     7   ar
     9     1     8    1
    10     8     9    1
    11     9    10    1
    12    10    11    1
    13    11    12    1
    14    12    13    1
    15     7     2   ar
    16    13     8    1
    17    14    16    1
