@<TRIPOS>MOLECULE
*****
 27 30 0 0 0
SMALL
GASTEIGER

@<TRIPOS>ATOM
      1 C         143.2405  143.8712  162.4058 C.2     1  UNL1        0.3179
      2 N         143.9451  143.6115  161.1074 N.2     1  UNL1        0.0095
      3 C         144.8371  142.4140  160.9645 C.2     1  UNL1        0.4717
      4 N         145.0244  141.4762  162.1201 N.2     1  UNL1        0.0158
      5 C         144.3198  141.7359  163.4186 C.2     1  UNL1        0.3712
      6 N         144.3114  140.9936  164.7220 N.2     1  UNL1       -0.0378
      7 C         143.4143  141.7323  165.6704 C.2     1  UNL1        0.1900
      8 C         142.8682  142.9312  164.9532 C.2     1  UNL1        0.0447
      9 C         143.4279  142.9334  163.5614 C.3     1  UNL1        0.2425
     10 C         143.1156  141.3408  167.0873 C.ar    1  UNL1        0.0427
     11 C         143.2654  142.3459  168.1906 C.ar    1  UNL1        0.0037
     12 C         142.9668  141.9543  169.6075 C.ar    1  UNL1        0.0001
     13 C         142.5184  140.5577  169.9210 C.ar    1  UNL1        0.0000
     14 C         142.3686  139.5526  168.8177 C.ar    1  UNL1        0.0001
     15 C         142.6672  139.9441  167.4009 C.ar    1  UNL1        0.0037
     16 N         142.3485  145.0687  162.5487 N.pl3   1  UNL1       -0.2192
     17 H         142.6813  145.8797  162.9968 H       1  UNL1        0.2922
     18 CA        140.9495  145.0305  162.0090 C.3     1  UNL1        0.2087
     19 C         139.8215  144.5653  162.8814 C.ar    1  UNL1        0.0222
     20 C         138.7556  143.6734  162.3172 C.ar    1  UNL1       -0.0004
     21 C         137.6275  143.2083  163.1896 C.ar    1  UNL1       -0.0002
     22 C         137.5654  143.6350  164.6263 C.ar    1  UNL1       -0.0000
     23 C         138.6313  144.5268  165.1905 C.ar    1  UNL1       -0.0002
     24 C         139.7594  144.9920  164.3181 C.ar    1  UNL1       -0.0004
     25 O         141.8085  145.5661  159.6162 O.3     1  UNL1       -0.3780
     26 C         140.6786  145.4574  160.5967 C.3     1  UNL1        0.1886
     27 H         141.4636  145.8519  158.7558 H       1  UNL1        0.2106
@<TRIPOS>BOND
     1    25    26    1
     2    18    26    1
     3    18    16    1
     4    16     1    1
     5     1     2    2
     6     2     3    1
     7     3     4    2
     8     4     5    1
     9     5     6    2
    10     6     7    1
    11     7    10    1
    12    10    11   ar
    13    11    12   ar
    14    12    13   ar
    15    13    14   ar
    16    14    15   ar
    17     7     8    2
    18     8     9    1
    19    18    19    1
    20    19    20   ar
    21    20    21   ar
    22    21    22   ar
    23    22    23   ar
    24    23    24   ar
    25     9     1    1
    26    24    19   ar
    27     9     5    1
    28    15    10   ar
    29    25    27    1
    30    16    17    1
@<TRIPOS>MOLECULE
*****
 27 30 0 0 0
SMALL
GASTEIGER

@<TRIPOS>ATOM
      1 C         138.6271  143.2993  163.0910 C.2     1  UNL1        0.3179
      2 N         137.7293  142.4455  162.2455 N.2     1  UNL1        0.0095
      3 C         137.3567  141.0665  162.7033 C.2     1  UNL1        0.4717
      4 N         137.8819  140.5414  164.0065 N.2     1  UNL1        0.0158
      5 C         138.7798  141.3952  164.8519 C.2     1  UNL1        0.3712
      6 N         139.4460  141.1496  166.1732 N.2     1  UNL1       -0.0378
      7 C         140.2304  142.3768  166.5320 C.2     1  UNL1        0.1900
      8 C         140.0489  143.3808  165.4326 C.2     1  UNL1        0.0447
      9 C         139.1524  142.7742  164.3942 C.3     1  UNL1        0.2425
     10 C         141.0521  142.5665  167.7726 C.ar    1  UNL1        0.0427
     11 C         140.4647  143.2681  168.9612 C.ar    1  UNL1        0.0037
     12 C         141.2863  143.4578  170.2017 C.ar    1  UNL1        0.0001
     13 C         142.6953  142.9459  170.2536 C.ar    1  UNL1        0.0000
     14 C         143.2827  142.2443  169.0651 C.ar    1  UNL1        0.0001
     15 C         142.4611  142.0546  167.8246 C.ar    1  UNL1        0.0037
     16 N         138.9998  144.6784  162.6333 N.pl3   1  UNL1       -0.2192
     17 H         138.3923  145.4343  162.8029 H       1  UNL1        0.2922
     18 CA        140.2980  144.9056  161.9171 C.3     1  UNL1        0.2087
     19 C         141.5876  144.4656  162.5443 C.ar    1  UNL1        0.0222
     20 C         142.1736  143.1295  162.1957 C.ar    1  UNL1       -0.0004
     21 C         143.4632  142.6894  162.8229 C.ar    1  UNL1       -0.0002
     22 C         144.1667  143.5855  163.7987 C.ar    1  UNL1       -0.0000
     23 C         143.5807  144.9215  164.1473 C.ar    1  UNL1       -0.0002
     24 C         142.2911  145.3616  163.5201 C.ar    1  UNL1       -0.0004
     25 O         141.5829  145.6666  159.7911 O.3     1  UNL1       -0.3780
     26 C         140.3067  145.5730  160.5737 C.3     1  UNL1        0.1886
     27 H         141.4149  146.1236  158.9521 H       1  UNL1        0.2106
@<TRIPOS>BOND
     1    25    26    1
     2    18    26    1
     3    18    16    1
     4    16     1    1
     5     1     2    2
     6     2     3    1
     7     3     4    2
     8     4     5    1
     9     5     6    2
    10     6     7    1
    11     7    10    1
    12    10    11   ar
    13    11    12   ar
    14    12    13   ar
    15    13    14   ar
    16    14    15   ar
    17     7     8    2
    18     8     9    1
    19    18    19    1
    20    19    20   ar
    21    20    21   ar
    22    21    22   ar
    23    22    23   ar
    24    23    24   ar
    25     9     1    1
    26    24    19   ar
    27     9     5    1
    28    15    10   ar
    29    25    27    1
    30    16    17    1
@<TRIPOS>MOLECULE
*****
 27 30 0 0 0
SMALL
GASTEIGER

@<TRIPOS>ATOM
      1 C         140.9625  138.1066  162.9075 C.2     1  UNL1        0.3179
      2 N         140.1594  137.7134  161.7031 N.2     1  UNL1        0.0095
      3 C         138.7156  138.1074  161.6032 C.2     1  UNL1        0.4717
      4 N         138.0748  138.8946  162.7076 N.2     1  UNL1        0.0158
      5 C         138.8778  139.2877  163.9120 C.2     1  UNL1        0.3712
      6 N         138.5208  140.0575  165.1488 N.2     1  UNL1       -0.0378
      7 C         139.7439  140.1393  166.0132 C.2     1  UNL1        0.1900
      8 C         140.8570  139.4200  165.3106 C.2     1  UNL1        0.0447
      9 C         140.3216  138.8937  164.0119 C.3     1  UNL1        0.2425
     10 C         139.8376  140.8208  167.3462 C.ar    1  UNL1        0.0427
     11 C         139.3128  140.1396  168.5753 C.ar    1  UNL1        0.0037
     12 C         139.4065  140.8211  169.9082 C.ar    1  UNL1        0.0001
     13 C         140.0249  142.1837  170.0121 C.ar    1  UNL1        0.0000
     14 C         140.5497  142.8649  168.7831 C.ar    1  UNL1        0.0001
     15 C         140.4560  142.1834  167.4501 C.ar    1  UNL1        0.0037
     16 N         142.4064  137.7125  163.0074 N.pl3   1  UNL1       -0.2192
     17 H         142.6900  137.0473  163.6755 H       1  UNL1        0.2922
     18 CA        143.4181  138.3322  162.0896 C.3     1  UNL1        0.2087
     19 C         144.1425  139.5786  162.5038 C.ar    1  UNL1        0.0222
     20 C         144.7479  139.6744  163.8730 C.ar    1  UNL1       -0.0004
     21 C         145.4723  140.9208  164.2872 C.ar    1  UNL1       -0.0002
     22 C         145.5914  142.0715  163.3324 C.ar    1  UNL1       -0.0000
     23 C         144.9861  141.9758  161.9633 C.ar    1  UNL1       -0.0002
     24 C         144.2616  140.7293  161.5490 C.ar    1  UNL1       -0.0004
     25 O         142.8802  136.5473  160.2799 O.3     1  UNL1       -0.3780
     26 C         143.7055  137.7053  160.7575 C.3     1  UNL1        0.1886
     27 H         143.1951  136.2640  159.4072 H       1  UNL1        0.2106
@<TRIPOS>BOND
     1    25    26    1
     2    18    26    1
     3    18    16    1
     4    16     1    1
     5     1     2    2
     6     2     3    1
     7     3     4    2
     8     4     5    1
     9     5     6    2
    10     6     7    1
    11     7    10    1
    12    10    11   ar
    13    11    12   ar
    14    12    13   ar
    15    13    14   ar
    16    14    15   ar
    17     7     8    2
    18     8     9    1
    19    18    19    1
    20    19    20   ar
    21    20    21   ar
    22    21    22   ar
    23    22    23   ar
    24    23    24   ar
    25     9     1    1
    26    24    19   ar
    27     9     5    1
    28    15    10   ar
    29    25    27    1
    30    16    17    1
@<TRIPOS>MOLECULE
*****
 27 30 0 0 0
SMALL
GASTEIGER

@<TRIPOS>ATOM
      1 C         142.2355  144.7602  163.3308 C.2     1  UNL1        0.3179
      2 N         143.4167  144.7339  162.4068 N.2     1  UNL1        0.0095
      3 C         144.4755  143.6844  162.5728 C.2     1  UNL1        0.4717
      4 N         144.3529  142.6612  163.6628 N.2     1  UNL1        0.0158
      5 C         143.1716  142.6875  164.5868 C.2     1  UNL1        0.3712
      6 N         142.7828  141.8159  165.7439 N.2     1  UNL1       -0.0378
      7 C         141.4838  142.3266  166.2932 C.2     1  UNL1        0.1900
      8 C         141.0697  143.5140  165.4754 C.2     1  UNL1        0.0447
      9 C         142.1129  143.7370  164.4208 C.3     1  UNL1        0.2425
     10 C         140.7310  141.7511  167.4560 C.ar    1  UNL1        0.0427
     11 C         140.7262  142.4663  168.7744 C.ar    1  UNL1        0.0037
     12 C         139.9735  141.8907  169.9372 C.ar    1  UNL1        0.0001
     13 C         139.2255  140.5999  169.7814 C.ar    1  UNL1        0.0000
     14 C         139.2302  139.8846  168.4630 C.ar    1  UNL1        0.0001
     15 C         139.9830  140.4602  167.3003 C.ar    1  UNL1        0.0037
     16 N         141.1766  145.8098  163.1649 N.pl3   1  UNL1       -0.2192
     17 H         141.2841  146.6895  163.5936 H       1  UNL1        0.2922
     18 CA        139.9542  145.5189  162.3458 C.3     1  UNL1        0.2087
     19 C         139.0860  144.3438  162.6853 C.ar    1  UNL1        0.0222
     20 C         138.2177  144.3813  163.9080 C.ar    1  UNL1       -0.0004
     21 C         137.3494  143.2062  164.2476 C.ar    1  UNL1       -0.0002
     22 C         137.3495  141.9936  163.3646 C.ar    1  UNL1       -0.0000
     23 C         138.2177  141.9561  162.1420 C.ar    1  UNL1       -0.0002
     24 C         139.0860  143.1312  161.8024 C.ar    1  UNL1       -0.0004
     25 O         139.7317  145.8894  159.7839 O.3     1  UNL1       -0.3780
     26 C         139.5999  146.4031  161.1870 C.3     1  UNL1        0.1886
     27 H         139.4643  146.5820  159.1595 H       1  UNL1        0.2106
@<TRIPOS>BOND
     1    25    26    1
     2    18    26    1
     3    18    16    1
     4    16     1    1
     5     1     2    2
     6     2     3    1
     7     3     4    2
     8     4     5    1
     9     5     6    2
    10     6     7    1
    11     7    10    1
    12    10    11   ar
    13    11    12   ar
    14    12    13   ar
    15    13    14   ar
    16    14    15   ar
    17     7     8    2
    18     8     9    1
    19    18    19    1
    20    19    20   ar
    21    20    21   ar
    22    21    22   ar
    23    22    23   ar
    24    23    24   ar
    25     9     1    1
    26    24    19   ar
    27     9     5    1
    28    15    10   ar
    29    25    27    1
    30    16    17    1
@<TRIPOS>MOLECULE
*****
 27 30 0 0 0
SMALL
GASTEIGER

@<TRIPOS>ATOM
      1 C         137.8841  142.2224  163.3181 C.2     1  UNL1        0.3179
      2 N         137.7099  143.4985  162.5492 N.2     1  UNL1        0.0095
      3 C         138.3878  144.7530  163.0146 C.2     1  UNL1        0.4717
      4 N         139.2399  144.7314  164.2488 N.2     1  UNL1        0.0158
      5 C         139.4141  143.4553  165.0177 C.2     1  UNL1        0.3712
      6 N         140.1871  143.1304  166.2614 N.2     1  UNL1       -0.0378
      7 C         139.9870  141.6751  166.5647 C.2     1  UNL1        0.1900
      8 C         139.0903  141.1005  165.5084 C.2     1  UNL1        0.0447
      9 C         138.7362  142.2008  164.5523 C.3     1  UNL1        0.2425
     10 C         140.5796  140.9258  167.7213 C.ar    1  UNL1        0.0427
     11 C         139.8676  140.8987  169.0413 C.ar    1  UNL1        0.0037
     12 C         140.4602  140.1495  170.1977 C.ar    1  UNL1        0.0001
     13 C         141.7647  139.4274  170.0343 C.ar    1  UNL1        0.0000
     14 C         142.4767  139.4545  168.7143 C.ar    1  UNL1        0.0001
     15 C         141.8841  140.2037  167.5578 C.ar    1  UNL1        0.0037
     16 N         137.2062  140.9678  162.8527 N.pl3   1  UNL1       -0.2192
     17 H         136.2668  140.7976  163.0933 H       1  UNL1        0.2922
     18 CA        137.9595  139.9727  162.0207 C.3     1  UNL1        0.2087
     19 C         139.1151  139.2219  162.6129 C.ar    1  UNL1        0.0222
     20 C         138.8653  138.0898  163.5648 C.ar    1  UNL1       -0.0004
     21 C         140.0209  137.3389  164.1570 C.ar    1  UNL1       -0.0002
     22 C         141.4263  137.7201  163.7973 C.ar    1  UNL1       -0.0000
     23 C         141.6762  138.8521  162.8455 C.ar    1  UNL1       -0.0002
     24 C         140.5206  139.6030  162.2532 C.ar    1  UNL1       -0.0004
     25 O         136.1146  139.5025  160.2528 O.3     1  UNL1       -0.3780
     26 C         137.5571  139.7284  160.5964 C.3     1  UNL1        0.1886
     27 H         136.0281  139.3613  159.2970 H       1  UNL1        0.2106
@<TRIPOS>BOND
     1    25    26    1
     2    18    26    1
     3    18    16    1
     4    16     1    1
     5     1     2    2
     6     2     3    1
     7     3     4    2
     8     4     5    1
     9     5     6    2
    10     6     7    1
    11     7    10    1
    12    10    11   ar
    13    11    12   ar
    14    12    13   ar
    15    13    14   ar
    16    14    15   ar
    17     7     8    2
    18     8     9    1
    19    18    19    1
    20    19    20   ar
    21    20    21   ar
    22    21    22   ar
    23    22    23   ar
    24    23    24   ar
    25     9     1    1
    26    24    19   ar
    27     9     5    1
    28    15    10   ar
    29    25    27    1
    30    16    17    1
@<TRIPOS>MOLECULE
*****
 27 30 0 0 0
SMALL
GASTEIGER

@<TRIPOS>ATOM
      1 C         139.2966  138.9563  164.0401 C.2     1  UNL1        0.3179
      2 N         139.6695  137.7457  163.2369 N.2     1  UNL1        0.0095
      3 C         140.9318  136.9981  163.5493 C.2     1  UNL1        0.4717
      4 N         141.8212  137.4611  164.6649 N.2     1  UNL1        0.0158
      5 C         141.4483  138.6718  165.4681 C.2     1  UNL1        0.3712
      6 N         142.1219  139.3598  166.6183 N.2     1  UNL1       -0.0378
      7 C         141.2759  140.5326  167.0167 C.2     1  UNL1        0.1900
      8 C         140.0794  140.5695  166.1129 C.2     1  UNL1        0.0447
      9 C         140.1860  139.4194  165.1558 C.3     1  UNL1        0.2425
     10 C         141.5741  141.4990  168.1246 C.ar    1  UNL1        0.0427
     11 C         142.9263  141.5017  168.7738 C.ar    1  UNL1        0.0037
     12 C         143.2245  142.4680  169.8816 C.ar    1  UNL1        0.0001
     13 C         142.1704  143.4316  170.3403 C.ar    1  UNL1        0.0000
     14 C         140.8182  143.4288  169.6912 C.ar    1  UNL1        0.0001
     15 C         140.5200  142.4625  168.5833 C.ar    1  UNL1        0.0037
     16 N         138.0342  139.7040  163.7278 N.pl3   1  UNL1       -0.2192
     17 H         137.1822  139.4221  164.1324 H       1  UNL1        0.2922
     18 CA        138.0701  140.8812  162.7989 C.3     1  UNL1        0.2087
     19 C         138.4820  142.2292  163.3120 C.ar    1  UNL1        0.0222
     20 C         137.6786  142.9003  164.3863 C.ar    1  UNL1       -0.0004
     21 C         138.0905  144.2483  164.8994 C.ar    1  UNL1       -0.0002
     22 C         139.3058  144.9251  164.3382 C.ar    1  UNL1       -0.0000
     23 C         140.1092  144.2540  163.2640 C.ar    1  UNL1       -0.0002
     24 C         139.6973  142.9060  162.7508 C.ar    1  UNL1       -0.0004
     25 O         136.9181  139.5026  160.9221 O.3     1  UNL1       -0.3780
     26 C         137.6941  140.7104  161.3568 C.3     1  UNL1        0.1886
     27 H         136.7593  139.5472  159.9662 H       1  UNL1        0.2106
@<TRIPOS>BOND
     1    25    26    1
     2    18    26    1
     3    18    16    1
     4    16     1    1
     5     1     2    2
     6     2     3    1
     7     3     4    2
     8     4     5    1
     9     5     6    2
    10     6     7    1
    11     7    10    1
    12    10    11   ar
    13    11    12   ar
    14    12    13   ar
    15    13    14   ar
    16    14    15   ar
    17     7     8    2
    18     8     9    1
    19    18    19    1
    20    19    20   ar
    21    20    21   ar
    22    21    22   ar
    23    22    23   ar
    24    23    24   ar
    25     9     1    1
    26    24    19   ar
    27     9     5    1
    28    15    10   ar
    29    25    27    1
    30    16    17    1
@<TRIPOS>MOLECULE
*****
 27 30 0 0 0
SMALL
GASTEIGER

@<TRIPOS>ATOM
      1 C         143.7579  139.8803  163.7716 C.2     1  UNL1        0.3179
      2 N         144.6537  140.3885  162.6811 N.2     1  UNL1        0.0095
      3 C         145.2772  141.7479  162.7952 C.2     1  UNL1        0.4717
      4 N         145.0051  142.5991  164.0000 N.2     1  UNL1        0.0158
      5 C         144.1093  142.0909  165.0905 C.2     1  UNL1        0.3712
      6 N         143.6607  142.6993  166.3861 N.2     1  UNL1       -0.0378
      7 C         142.7598  141.7159  167.0727 C.2     1  UNL1        0.1900
      8 C         142.6517  140.4997  166.2014 C.2     1  UNL1        0.0447
      9 C         143.4857  140.7315  164.9763 C.3     1  UNL1        0.2425
     10 C         142.0855  141.9139  168.3979 C.ar    1  UNL1        0.0427
     11 C         142.6293  141.2423  169.6239 C.ar    1  UNL1        0.0037
     12 C         141.9550  141.4404  170.9490 C.ar    1  UNL1        0.0001
     13 C         140.7369  142.3100  171.0481 C.ar    1  UNL1        0.0000
     14 C         140.1930  142.9816  169.8221 C.ar    1  UNL1        0.0001
     15 C         140.8673  142.7835  168.4970 C.ar    1  UNL1        0.0037
     16 N         143.1343  138.5208  163.6574 N.pl3   1  UNL1       -0.2192
     17 H         143.6218  137.7272  163.9764 H       1  UNL1        0.2922
     18 CA        141.7678  138.3705  163.0573 C.3     1  UNL1        0.2087
     19 C         140.5503  138.6759  163.8784 C.ar    1  UNL1        0.0222
     20 C         139.9633  137.6221  164.7700 C.ar    1  UNL1       -0.0004
     21 C         138.7458  137.9275  165.5912 C.ar    1  UNL1       -0.0002
     22 C         138.1152  139.2866  165.5207 C.ar    1  UNL1       -0.0000
     23 C         138.7021  140.3404  164.6291 C.ar    1  UNL1       -0.0002
     24 C         139.9197  140.0351  163.8079 C.ar    1  UNL1       -0.0004
     25 O         142.6400  136.9970  161.0317 O.3     1  UNL1       -0.3780
     26 C         141.6189  137.9148  161.6359 C.3     1  UNL1        0.1886
     27 H         142.3959  136.8014  160.1135 H       1  UNL1        0.2106
@<TRIPOS>BOND
     1    25    26    1
     2    18    26    1
     3    18    16    1
     4    16     1    1
     5     1     2    2
     6     2     3    1
     7     3     4    2
     8     4     5    1
     9     5     6    2
    10     6     7    1
    11     7    10    1
    12    10    11   ar
    13    11    12   ar
    14    12    13   ar
    15    13    14   ar
    16    14    15   ar
    17     7     8    2
    18     8     9    1
    19    18    19    1
    20    19    20   ar
    21    20    21   ar
    22    21    22   ar
    23    22    23   ar
    24    23    24   ar
    25     9     1    1
    26    24    19   ar
    27     9     5    1
    28    15    10   ar
    29    25    27    1
    30    16    17    1
@<TRIPOS>MOLECULE
*****
 27 30 0 0 0
SMALL
GASTEIGER

@<TRIPOS>ATOM
      1 C         138.7155  140.7356  163.5193 C.2     1  UNL1        0.3179
      2 N         137.9212  141.3621  162.4119 N.2     1  UNL1        0.0095
      3 C         137.6885  142.8439  162.4013 C.2     1  UNL1        0.4717
      4 N         138.2502  143.6991  163.4982 N.2     1  UNL1        0.0158
      5 C         139.0446  143.0726  164.6056 C.2     1  UNL1        0.3712
      6 N         139.7173  143.6560  165.8126 N.2     1  UNL1       -0.0378
      7 C         140.3657  142.5348  166.5692 C.2     1  UNL1        0.1900
      8 C         140.0938  141.2584  165.8297 C.2     1  UNL1        0.0447
      9 C         139.2772  141.5908  164.6161 C.3     1  UNL1        0.2425
     10 C         141.1487  142.6669  167.8419 C.ar    1  UNL1        0.0427
     11 C         140.5198  143.3011  169.0470 C.ar    1  UNL1        0.0037
     12 C         141.3028  143.4331  170.3195 C.ar    1  UNL1        0.0001
     13 C         142.7146  142.9309  170.3870 C.ar    1  UNL1        0.0000
     14 C         143.3435  142.2967  169.1820 C.ar    1  UNL1        0.0001
     15 C         142.5605  142.1646  167.9094 C.ar    1  UNL1        0.0037
     16 N         138.9482  139.2537  163.5298 N.pl3   1  UNL1       -0.2192
     17 H         138.2747  138.6525  163.9223 H       1  UNL1        0.2922
     18 CA        140.2072  138.6881  162.9425 C.3     1  UNL1        0.2087
     19 C         141.5029  138.8081  163.6886 C.ar    1  UNL1        0.0222
     20 C         141.6948  138.0720  164.9815 C.ar    1  UNL1       -0.0004
     21 C         142.9905  138.1920  165.7276 C.ar    1  UNL1       -0.0002
     22 C         144.0942  139.0481  165.1811 C.ar    1  UNL1       -0.0000
     23 C         143.9023  139.7843  163.8883 C.ar    1  UNL1       -0.0002
     24 C         142.6066  139.6643  163.1421 C.ar    1  UNL1       -0.0004
     25 O         138.8535  137.6693  160.9728 O.3     1  UNL1       -0.3780
     26 C         140.1705  138.0024  161.6088 C.3     1  UNL1        0.1886
     27 H         139.0073  137.2320  160.1207 H       1  UNL1        0.2106
@<TRIPOS>BOND
     1    25    26    1
     2    18    26    1
     3    18    16    1
     4    16     1    1
     5     1     2    2
     6     2     3    1
     7     3     4    2
     8     4     5    1
     9     5     6    2
    10     6     7    1
    11     7    10    1
    12    10    11   ar
    13    11    12   ar
    14    12    13   ar
    15    13    14   ar
    16    14    15   ar
    17     7     8    2
    18     8     9    1
    19    18    19    1
    20    19    20   ar
    21    20    21   ar
    22    21    22   ar
    23    22    23   ar
    24    23    24   ar
    25     9     1    1
    26    24    19   ar
    27     9     5    1
    28    15    10   ar
    29    25    27    1
    30    16    17    1
@<TRIPOS>MOLECULE
*****
 27 30 0 0 0
SMALL
GASTEIGER

@<TRIPOS>ATOM
      1 C         141.7381  141.7075  162.5713 C.2     1  UNL1        0.3179
      2 N         142.1558  142.7097  161.5365 N.2     1  UNL1        0.0095
      3 C         143.0618  143.8441  161.9138 C.2     1  UNL1        0.4717
      4 N         143.5500  143.9762  163.3260 N.2     1  UNL1        0.0158
      5 C         143.1323  142.9739  164.3608 C.2     1  UNL1        0.3712
      6 N         143.4510  142.8466  165.8210 N.2     1  UNL1       -0.0378
      7 C         142.7419  141.6335  166.3461 C.2     1  UNL1        0.1900
      8 C         141.9851  141.0111  165.2105 C.2     1  UNL1        0.0447
      9 C         142.2263  141.8395  163.9834 C.3     1  UNL1        0.2425
     10 C         142.7827  141.1311  167.7590 C.ar    1  UNL1        0.0427
     11 C         142.4218  139.7064  168.0590 C.ar    1  UNL1        0.0037
     12 C         142.4626  139.2040  169.4718 C.ar    1  UNL1        0.0001
     13 C         142.8642  140.1263  170.5845 C.ar    1  UNL1        0.0000
     14 C         143.2250  141.5510  170.2844 C.ar    1  UNL1        0.0001
     15 C         143.1843  142.0534  168.8716 C.ar    1  UNL1        0.0037
     16 N         140.8321  140.5730  162.1940 N.pl3   1  UNL1       -0.2192
     17 H         141.1688  139.8417  161.6274 H       1  UNL1        0.2922
     18 CA        139.4131  140.5530  162.6799 C.3     1  UNL1        0.2087
     19 C         139.0364  139.7073  163.8601 C.ar    1  UNL1        0.0222
     20 C         139.3143  138.2333  163.8459 C.ar    1  UNL1       -0.0004
     21 C         138.9376  137.3877  165.0261 C.ar    1  UNL1       -0.0002
     22 C         138.2829  138.0160  166.2206 C.ar    1  UNL1       -0.0000
     23 C         138.0050  139.4899  166.2348 C.ar    1  UNL1       -0.0002
     24 C         138.3817  140.3356  165.0546 C.ar    1  UNL1       -0.0004
     25 O         136.9381  140.9346  161.9880 O.3     1  UNL1       -0.3780
     26 C         138.3708  141.3786  161.9856 C.3     1  UNL1        0.1886
     27 H         136.3998  141.5764  161.4989 H       1  UNL1        0.2106
@<TRIPOS>BOND
     1    25    26    1
     2    18    26    1
     3    18    16    1
     4    16     1    1
     5     1     2    2
     6     2     3    1
     7     3     4    2
     8     4     5    1
     9     5     6    2
    10     6     7    1
    11     7    10    1
    12    10    11   ar
    13    11    12   ar
    14    12    13   ar
    15    13    14   ar
    16    14    15   ar
    17     7     8    2
    18     8     9    1
    19    18    19    1
    20    19    20   ar
    21    20    21   ar
    22    21    22   ar
    23    22    23   ar
    24    23    24   ar
    25     9     1    1
    26    24    19   ar
    27     9     5    1
    28    15    10   ar
    29    25    27    1
    30    16    17    1
