@<TRIPOS>MOLECULE
*****
 27 29 0 0 0
SMALL
GASTEIGER

@<TRIPOS>ATOM
      1 N         143.5464  142.1982  162.4316 N.ar    1  UNL1       -0.2694
      2 C         143.8552  141.3831  161.2108 C.ar    1  UNL1        0.3331
      3 O         144.1398  141.9213  159.8400 O.2     1  UNL1       -0.2462
      4 N         143.8293  139.9351  161.6017 N.ar    1  UNL1       -0.2630
      5 C         144.0836  138.7712  160.6903 C.3     1  UNL1        0.1366
      6 C         143.5046  139.8554  163.0640 C.ar    1  UNL1        0.1633
      7 N         143.3455  138.6899  163.9947 N.ar    1  UNL1       -0.2251
      8 C         143.0116  138.9231  165.4383 C.ar    1  UNL1        0.1006
      9 C         142.8367  140.3218  165.9512 C.ar    1  UNL1        0.0207
     10 C         142.9958  141.4873  165.0205 C.ar    1  UNL1        0.0219
     11 C         143.3297  141.2541  163.5768 C.ar    1  UNL1        0.0986
     12 C         142.5028  140.5550  167.3949 C.ar    1  UNL1        0.0015
     13 C         142.6505  139.4409  168.3883 C.ar    1  UNL1        0.0000
     14 C         142.3166  139.6740  169.8320 C.ar    1  UNL1       -0.0001
     15 C         141.8349  141.0214  170.2822 C.ar    1  UNL1        0.0039
     16 C         141.6872  142.1355  169.2887 C.ar    1  UNL1        0.0714
     17 C         142.0211  141.9023  167.8451 C.ar    1  UNL1        0.0039
     18 C         141.2055  143.4829  169.7389 C.3     1  UNL1        0.4186
     19 F         140.7238  144.8302  170.1891 F       1  UNL1       -0.1659
     20 F         142.4994  143.7027  170.4652 F       1  UNL1       -0.1659
     21 F         139.9116  143.2630  169.0126 F       1  UNL1       -0.1659
     22 C         143.4680  143.6948  162.4958 C.3     1  UNL1        0.1956
     23 C         140.0317  145.6229  162.0229 C.3     1  UNL1        0.1150
     24 N         141.1750  144.9030  162.6745 N.am    1  UNL1       -0.2744
     25 C         141.1685  144.6715  164.1565 C.3     1  UNL1        0.1150
     26 C         142.3248  144.4146  161.8442 C.2     1  UNL1        0.2490
     27 O         142.3312  144.6462  160.3621 O.2     1  UNL1       -0.2728
@<TRIPOS>BOND
     1    23    24    1
     2    24    25    1
     3    24    26   am
     4    26    27    2
     5    26    22    1
     6    22     1    1
     7     1     2   ar
     8     2     3    2
     9     2     4   ar
    10     4     5    1
    11     4     6   ar
    12     6     7   ar
    13     7     8   ar
    14     8     9   ar
    15     9    12    1
    16    12    13   ar
    17    13    14   ar
    18    14    15   ar
    19    15    16   ar
    20    16    18    1
    21    18    19    1
    22    18    20    1
    23    18    21    1
    24    16    17   ar
    25     9    10   ar
    26    10    11   ar
    27    11     1   ar
    28    11     6   ar
    29    17    12   ar
@<TRIPOS>MOLECULE
*****
 27 29 0 0 0
SMALL
GASTEIGER

@<TRIPOS>ATOM
      1 N         143.3488  139.4905  162.6389 N.ar    1  UNL1       -0.2694
      2 C         143.8991  140.0687  161.3689 C.ar    1  UNL1        0.3331
      3 O         144.0866  139.3343  160.0745 O.2     1  UNL1       -0.2462
      4 N         144.2289  141.5101  161.6206 N.ar    1  UNL1       -0.2630
      5 C         144.8042  142.4703  160.6220 C.3     1  UNL1        0.1366
      6 C         143.8825  141.8229  163.0461 C.ar    1  UNL1        0.1633
      7 N         143.9922  143.0830  163.8524 N.ar    1  UNL1       -0.2251
      8 C         143.5578  143.0949  165.2880 C.ar    1  UNL1        0.1006
      9 C         143.0139  141.8467  165.9174 C.ar    1  UNL1        0.0207
     10 C         142.9042  140.5866  165.1111 C.ar    1  UNL1        0.0219
     11 C         143.3386  140.5747  163.6755 C.ar    1  UNL1        0.0986
     12 C         142.5795  141.8586  167.3532 C.ar    1  UNL1        0.0015
     13 C         143.4922  142.4097  168.4083 C.ar    1  UNL1        0.0000
     14 C         143.0578  142.4217  169.8440 C.ar    1  UNL1       -0.0001
     15 C         141.7108  141.8825  170.2246 C.ar    1  UNL1        0.0039
     16 C         140.7981  141.3313  169.1694 C.ar    1  UNL1        0.0714
     17 C         141.2325  141.3194  167.7337 C.ar    1  UNL1        0.0039
     18 C         139.4511  140.7921  169.5499 C.3     1  UNL1        0.4186
     19 F         138.1041  140.2529  169.9304 F       1  UNL1       -0.1659
     20 F         139.7120  139.5626  168.7311 F       1  UNL1       -0.1659
     21 F         139.1903  142.0216  170.3686 F       1  UNL1       -0.1659
     22 C         142.8894  138.0765  162.8375 C.3     1  UNL1        0.1956
     23 C         138.9456  137.6527  162.9654 C.3     1  UNL1        0.1150
     24 N         140.3255  137.9270  162.4452 N.am    1  UNL1       -0.2744
     25 C         140.5213  138.3260  161.0126 C.3     1  UNL1        0.1150
     26 C         141.5095  137.8022  163.3576 C.2     1  UNL1        0.2490
     27 O         141.3135  137.4032  164.7903 O.2     1  UNL1       -0.2728
@<TRIPOS>BOND
     1    23    24    1
     2    24    25    1
     3    24    26   am
     4    26    27    2
     5    26    22    1
     6    22     1    1
     7     1     2   ar
     8     2     3    2
     9     2     4   ar
    10     4     5    1
    11     4     6   ar
    12     6     7   ar
    13     7     8   ar
    14     8     9   ar
    15     9    12    1
    16    12    13   ar
    17    13    14   ar
    18    14    15   ar
    19    15    16   ar
    20    16    18    1
    21    18    19    1
    22    18    20    1
    23    18    21    1
    24    16    17   ar
    25     9    10   ar
    26    10    11   ar
    27    11     1   ar
    28    11     6   ar
    29    17    12   ar
@<TRIPOS>MOLECULE
*****
 27 29 0 0 0
SMALL
GASTEIGER

@<TRIPOS>ATOM
      1 N         142.2028  138.6342  162.4439 N.ar    1  UNL1       -0.2694
      2 C         141.4225  138.4046  161.1837 C.ar    1  UNL1        0.3331
      3 O         141.9872  137.9704  159.8636 O.2     1  UNL1       -0.2462
      4 N         139.9781  138.6855  161.4752 N.ar    1  UNL1       -0.2630
      5 C         138.8450  138.5815  160.4979 C.3     1  UNL1        0.1366
      6 C         139.8658  139.0886  162.9157 C.ar    1  UNL1        0.1633
      7 N         138.6892  139.4805  163.7595 N.ar    1  UNL1       -0.2251
      8 C         138.8876  139.8406  165.2020 C.ar    1  UNL1        0.1006
      9 C         140.2626  139.8089  165.8007 C.ar    1  UNL1        0.0207
     10 C         141.4392  139.4171  164.9569 C.ar    1  UNL1        0.0219
     11 C         141.2408  139.0569  163.5144 C.ar    1  UNL1        0.0986
     12 C         140.4609  140.1691  167.2433 C.ar    1  UNL1        0.0015
     13 C         139.3459  139.9689  168.2264 C.ar    1  UNL1        0.0000
     14 C         139.5443  140.3291  169.6690 C.ar    1  UNL1       -0.0001
     15 C         140.8576  140.8895  170.1284 C.ar    1  UNL1        0.0039
     16 C         141.9727  141.0897  169.1451 C.ar    1  UNL1        0.0714
     17 C         141.7743  140.7295  167.7026 C.ar    1  UNL1        0.0039
     18 C         143.2860  141.6501  169.6045 C.3     1  UNL1        0.4186
     19 F         144.5994  142.2105  170.0638 F       1  UNL1       -0.1659
     20 F         143.0963  142.8338  168.7029 F       1  UNL1       -0.1659
     21 F         143.4758  140.4664  170.5061 F       1  UNL1       -0.1659
     22 C         143.6850  138.4699  162.6055 C.3     1  UNL1        0.1956
     23 C         145.5803  141.8625  163.4103 C.3     1  UNL1        0.1150
     24 N         144.7857  140.8222  162.6780 N.am    1  UNL1       -0.2744
     25 C         144.2971  141.0938  161.2860 C.3     1  UNL1        0.1150
     26 C         144.4796  139.5102  163.3376 C.2     1  UNL1        0.2490
     27 O         144.9682  139.2387  164.7297 O.2     1  UNL1       -0.2728
@<TRIPOS>BOND
     1    23    24    1
     2    24    25    1
     3    24    26   am
     4    26    27    2
     5    26    22    1
     6    22     1    1
     7     1     2   ar
     8     2     3    2
     9     2     4   ar
    10     4     5    1
    11     4     6   ar
    12     6     7   ar
    13     7     8   ar
    14     8     9   ar
    15     9    12    1
    16    12    13   ar
    17    13    14   ar
    18    14    15   ar
    19    15    16   ar
    20    16    18    1
    21    18    19    1
    22    18    20    1
    23    18    21    1
    24    16    17   ar
    25     9    10   ar
    26    10    11   ar
    27    11     1   ar
    28    11     6   ar
    29    17    12   ar
@<TRIPOS>MOLECULE
*****
 27 29 0 0 0
SMALL
GASTEIGER

@<TRIPOS>ATOM
      1 N         140.0300  143.7350  160.0821 N.ar    1  UNL1       -0.2694
      2 C         139.5000  143.6338  158.6825 C.ar    1  UNL1        0.3331
      3 O         139.8557  144.5354  157.5377 O.2     1  UNL1       -0.2462
      4 N         138.5520  142.4726  158.6288 N.ar    1  UNL1       -0.2630
      5 C         137.7931  142.0092  157.4207 C.3     1  UNL1        0.1366
      6 C         138.4960  141.8562  159.9951 C.ar    1  UNL1        0.1633
      7 N         137.7313  140.6853  160.5374 N.ar    1  UNL1       -0.2251
      8 C         137.8800  140.2946  161.9779 C.ar    1  UNL1        0.1006
      9 C         138.7935  141.0748  162.8762 C.ar    1  UNL1        0.0207
     10 C         139.5583  142.2457  162.3339 C.ar    1  UNL1        0.0219
     11 C         139.4095  142.6364  160.8933 C.ar    1  UNL1        0.0986
     12 C         138.9423  140.6840  164.3168 C.ar    1  UNL1        0.0015
     13 C         139.7227  141.5572  165.2540 C.ar    1  UNL1        0.0000
     14 C         139.8714  141.1665  166.6946 C.ar    1  UNL1       -0.0001
     15 C         139.2397  139.9025  167.1979 C.ar    1  UNL1        0.0039
     16 C         138.4592  139.0293  166.2606 C.ar    1  UNL1        0.0714
     17 C         138.3105  139.4201  164.8201 C.ar    1  UNL1        0.0039
     18 C         137.8275  137.7653  166.7639 C.3     1  UNL1        0.4186
     19 F         137.1958  136.5013  167.2671 F       1  UNL1       -0.1659
     20 F         137.1694  138.5349  167.8705 F       1  UNL1       -0.1659
     21 F         138.4857  136.9957  165.6573 F       1  UNL1       -0.1659
     22 C         141.0087  144.7556  160.5826 C.3     1  UNL1        0.1956
     23 C         143.9841  144.1505  163.1381 C.3     1  UNL1        0.1150
     24 N         142.6632  144.5891  162.5789 N.am    1  UNL1       -0.2744
     25 C         141.6759  145.2998  163.4565 C.3     1  UNL1        0.1150
     26 C         142.3295  144.3171  161.1420 C.2     1  UNL1        0.2490
     27 O         143.3169  143.6064  160.2644 O.2     1  UNL1       -0.2728
@<TRIPOS>BOND
     1    23    24    1
     2    24    25    1
     3    24    26   am
     4    26    27    2
     5    26    22    1
     6    22     1    1
     7     1     2   ar
     8     2     3    2
     9     2     4   ar
    10     4     5    1
    11     4     6   ar
    12     6     7   ar
    13     7     8   ar
    14     8     9   ar
    15     9    12    1
    16    12    13   ar
    17    13    14   ar
    18    14    15   ar
    19    15    16   ar
    20    16    18    1
    21    18    19    1
    22    18    20    1
    23    18    21    1
    24    16    17   ar
    25     9    10   ar
    26    10    11   ar
    27    11     1   ar
    28    11     6   ar
    29    17    12   ar
@<TRIPOS>MOLECULE
*****
 27 29 0 0 0
SMALL
GASTEIGER

@<TRIPOS>ATOM
      1 N         143.0592  142.8822  161.6825 N.ar    1  UNL1       -0.2694
      2 C         142.4714  143.7455  160.6059 C.ar    1  UNL1        0.3331
      3 O         142.9598  143.8457  159.1912 O.2     1  UNL1       -0.2462
      4 N         141.3094  144.4910  161.1923 N.ar    1  UNL1       -0.2630
      5 C         140.4318  145.4676  160.4670 C.3     1  UNL1        0.1366
      6 C         141.1790  144.0884  162.6314 C.ar    1  UNL1        0.1633
      7 N         140.2153  144.4988  163.7051 N.ar    1  UNL1       -0.2251
      8 C         140.3330  143.9149  165.0817 C.ar    1  UNL1        0.1006
      9 C         141.4145  142.9206  165.3846 C.ar    1  UNL1        0.0207
     10 C         142.3782  142.5102  164.3110 C.ar    1  UNL1        0.0219
     11 C         142.2605  143.0941  162.9344 C.ar    1  UNL1        0.0986
     12 C         141.5321  142.3366  166.7613 C.ar    1  UNL1        0.0015
     13 C         142.8723  142.2577  167.4305 C.ar    1  UNL1        0.0000
     14 C         142.9899  141.6738  168.8072 C.ar    1  UNL1       -0.0001
     15 C         141.7675  141.1687  169.5147 C.ar    1  UNL1        0.0039
     16 C         140.4273  141.2476  168.8454 C.ar    1  UNL1        0.0714
     17 C         140.3097  141.8316  167.4688 C.ar    1  UNL1        0.0039
     18 C         139.2048  140.7426  169.5529 C.3     1  UNL1        0.4186
     19 F         137.9824  140.2375  170.2603 F       1  UNL1       -0.1659
     20 F         139.2121  139.5158  168.6897 F       1  UNL1       -0.1659
     21 F         139.1975  141.9693  170.4160 F       1  UNL1       -0.1659
     22 C         144.2386  141.9674  161.5335 C.3     1  UNL1        0.1956
     23 C         143.9514  138.0119  161.3883 C.3     1  UNL1        0.1150
     24 N         144.1419  139.4005  161.9226 N.am    1  UNL1       -0.2744
     25 C         144.4262  139.6107  163.3804 C.3     1  UNL1        0.1150
     26 C         144.0481  140.5789  160.9993 C.2     1  UNL1        0.2490
     27 O         143.7638  140.3686  159.5415 O.2     1  UNL1       -0.2728
@<TRIPOS>BOND
     1    23    24    1
     2    24    25    1
     3    24    26   am
     4    26    27    2
     5    26    22    1
     6    22     1    1
     7     1     2   ar
     8     2     3    2
     9     2     4   ar
    10     4     5    1
    11     4     6   ar
    12     6     7   ar
    13     7     8   ar
    14     8     9   ar
    15     9    12    1
    16    12    13   ar
    17    13    14   ar
    18    14    15   ar
    19    15    16   ar
    20    16    18    1
    21    18    19    1
    22    18    20    1
    23    18    21    1
    24    16    17   ar
    25     9    10   ar
    26    10    11   ar
    27    11     1   ar
    28    11     6   ar
    29    17    12   ar
@<TRIPOS>MOLECULE
*****
 27 29 0 0 0
SMALL
GASTEIGER

@<TRIPOS>ATOM
      1 N         141.6751  144.1315  162.3980 N.ar    1  UNL1       -0.2694
      2 C         142.4703  143.9384  161.1409 C.ar    1  UNL1        0.3331
      3 O         142.1778  144.5614  159.8081 O.2     1  UNL1       -0.2462
      4 N         143.6094  143.0129  161.4506 N.ar    1  UNL1       -0.2630
      5 C         144.6560  142.5479  160.4819 C.3     1  UNL1        0.1366
      6 C         143.5182  142.6340  162.8991 C.ar    1  UNL1        0.1633
      7 N         144.3692  141.7488  163.7606 N.ar    1  UNL1       -0.2251
      8 C         144.0248  141.5550  165.2075 C.ar    1  UNL1        0.1006
      9 C         142.8293  142.2463  165.7931 C.ar    1  UNL1        0.0207
     10 C         141.9782  143.1315  164.9316 C.ar    1  UNL1        0.0219
     11 C         142.3227  143.3253  163.4847 C.ar    1  UNL1        0.0986
     12 C         142.4849  142.0524  167.2401 C.ar    1  UNL1        0.0015
     13 C         143.4775  142.4195  168.3030 C.ar    1  UNL1        0.0000
     14 C         143.1331  142.2257  169.7501 C.ar    1  UNL1       -0.0001
     15 C         141.7960  141.6646  170.1341 C.ar    1  UNL1        0.0039
     16 C         140.8034  141.2975  169.0711 C.ar    1  UNL1        0.0714
     17 C         141.1478  141.4914  167.6241 C.ar    1  UNL1        0.0039
     18 C         139.4663  140.7364  169.4551 C.3     1  UNL1        0.4186
     19 F         138.1292  140.1754  169.8391 F       1  UNL1       -0.1659
     20 F         139.2243  141.9210  170.3429 F       1  UNL1       -0.1659
     21 F         139.7084  139.5519  168.5673 F       1  UNL1       -0.1659
     22 C         140.4477  144.9815  162.5431 C.3     1  UNL1        0.1956
     23 C         137.0572  143.6584  164.1254 C.3     1  UNL1        0.1150
     24 N         138.4056  144.3033  163.9990 N.am    1  UNL1       -0.2744
     25 C         139.0601  144.9150  165.2021 C.3     1  UNL1        0.1150
     26 C         139.0994  144.3366  162.6696 C.2     1  UNL1        0.2490
     27 O         138.4447  143.7249  161.4665 O.2     1  UNL1       -0.2728
@<TRIPOS>BOND
     1    23    24    1
     2    24    25    1
     3    24    26   am
     4    26    27    2
     5    26    22    1
     6    22     1    1
     7     1     2   ar
     8     2     3    2
     9     2     4   ar
    10     4     5    1
    11     4     6   ar
    12     6     7   ar
    13     7     8   ar
    14     8     9   ar
    15     9    12    1
    16    12    13   ar
    17    13    14   ar
    18    14    15   ar
    19    15    16   ar
    20    16    18    1
    21    18    19    1
    22    18    20    1
    23    18    21    1
    24    16    17   ar
    25     9    10   ar
    26    10    11   ar
    27    11     1   ar
    28    11     6   ar
    29    17    12   ar
@<TRIPOS>MOLECULE
*****
 27 29 0 0 0
SMALL
GASTEIGER

@<TRIPOS>ATOM
      1 N         142.6020  142.6395  161.1574 N.ar    1  UNL1       -0.2694
      2 C         142.2963  143.6381  160.0808 C.ar    1  UNL1        0.3331
      3 O         143.1214  143.8929  158.8543 O.2     1  UNL1       -0.2462
      4 N         141.0204  144.3373  160.4460 N.ar    1  UNL1       -0.2630
      5 C         140.3457  145.4141  159.6489 C.3     1  UNL1        0.1366
      6 C         140.5377  143.7708  161.7483 C.ar    1  UNL1        0.1633
      7 N         139.3344  144.0749  162.5906 N.ar    1  UNL1       -0.2251
      8 C         139.1086  143.3296  163.8726 C.ar    1  UNL1        0.1006
      9 C         140.0861  142.2803  164.3123 C.ar    1  UNL1        0.0207
     10 C         141.2894  141.9762  163.4700 C.ar    1  UNL1        0.0219
     11 C         141.5152  142.7215  162.1880 C.ar    1  UNL1        0.0986
     12 C         139.8602  141.5350  165.5944 C.ar    1  UNL1        0.0015
     13 C         140.4707  142.0348  166.8700 C.ar    1  UNL1        0.0000
     14 C         140.2448  141.2895  168.1521 C.ar    1  UNL1       -0.0001
     15 C         139.4084  140.0444  168.1584 C.ar    1  UNL1        0.0039
     16 C         138.7979  139.5445  166.8826 C.ar    1  UNL1        0.0714
     17 C         139.0238  140.2898  165.6006 C.ar    1  UNL1        0.0039
     18 C         137.9615  138.2994  166.8889 C.3     1  UNL1        0.4186
     19 F         137.1251  137.0542  166.8952 F       1  UNL1       -0.1659
     20 F         137.3380  138.7247  168.1852 F       1  UNL1       -0.1659
     21 F         138.5850  137.8740  165.5926 F       1  UNL1       -0.1659
     22 C         143.7867  141.7202  161.1966 C.3     1  UNL1        0.1956
     23 C         145.1111  139.7286  164.3635 C.3     1  UNL1        0.1150
     24 N         144.4367  140.0277  163.0575 N.am    1  UNL1       -0.2744
     25 C         143.7379  138.9334  162.3064 C.3     1  UNL1        0.1150
     26 C         144.4611  141.4211  162.5026 C.2     1  UNL1        0.2490
     27 O         145.1599  142.5153  163.2538 O.2     1  UNL1       -0.2728
@<TRIPOS>BOND
     1    23    24    1
     2    24    25    1
     3    24    26   am
     4    26    27    2
     5    26    22    1
     6    22     1    1
     7     1     2   ar
     8     2     3    2
     9     2     4   ar
    10     4     5    1
    11     4     6   ar
    12     6     7   ar
    13     7     8   ar
    14     8     9   ar
    15     9    12    1
    16    12    13   ar
    17    13    14   ar
    18    14    15   ar
    19    15    16   ar
    20    16    18    1
    21    18    19    1
    22    18    20    1
    23    18    21    1
    24    16    17   ar
    25     9    10   ar
    26    10    11   ar
    27    11     1   ar
    28    11     6   ar
    29    17    12   ar
@<TRIPOS>MOLECULE
*****
 27 29 0 0 0
SMALL
GASTEIGER

@<TRIPOS>ATOM
      1 N         139.6639  141.7456  162.8291 N.ar    1  UNL1       -0.2694
      2 C         139.0253  140.9625  161.7205 C.ar    1  UNL1        0.3331
      3 O         138.9741  141.3611  160.2753 O.2     1  UNL1       -0.2462
      4 N         138.4468  139.7107  162.3108 N.ar    1  UNL1       -0.2630
      5 C         137.7156  138.6378  161.5597 C.3     1  UNL1        0.1366
      6 C         138.7279  139.7202  163.7842 C.ar    1  UNL1        0.1633
      7 N         138.3961  138.7462  164.8756 N.ar    1  UNL1       -0.2251
      8 C         138.8165  139.0297  166.2872 C.ar    1  UNL1        0.1006
      9 C         139.5687  140.2874  166.6075 C.ar    1  UNL1        0.0207
     10 C         139.9005  141.2614  165.5162 C.ar    1  UNL1        0.0219
     11 C         139.4801  140.9778  164.1045 C.ar    1  UNL1        0.0986
     12 C         139.9891  140.5709  168.0193 C.ar    1  UNL1        0.0015
     13 C         139.1249  140.1281  169.1625 C.ar    1  UNL1        0.0000
     14 C         139.5453  140.4116  170.5742 C.ar    1  UNL1       -0.0001
     15 C         140.8300  141.1381  170.8426 C.ar    1  UNL1        0.0039
     16 C         141.6942  141.5809  169.6993 C.ar    1  UNL1        0.0714
     17 C         141.2737  141.2974  168.2877 C.ar    1  UNL1        0.0039
     18 C         142.9788  142.3073  169.9678 C.3     1  UNL1        0.4186
     19 F         144.2634  143.0338  170.2362 F       1  UNL1       -0.1659
     20 F         142.2272  143.6021  170.0608 F       1  UNL1       -0.1659
     21 F         143.7304  141.0126  169.8747 F       1  UNL1       -0.1659
     22 C         140.3634  143.0648  162.6871 C.3     1  UNL1        0.1956
     23 C         144.1398  144.2838  162.7391 C.3     1  UNL1        0.1150
     24 N         142.6605  144.2418  162.9838 N.am    1  UNL1       -0.2744
     25 C         141.9991  145.3348  163.7699 C.3     1  UNL1        0.1150
     26 C         141.8427  143.1069  162.4424 C.2     1  UNL1        0.2490
     27 O         142.5043  142.0140  161.6563 O.2     1  UNL1       -0.2728
@<TRIPOS>BOND
     1    23    24    1
     2    24    25    1
     3    24    26   am
     4    26    27    2
     5    26    22    1
     6    22     1    1
     7     1     2   ar
     8     2     3    2
     9     2     4   ar
    10     4     5    1
    11     4     6   ar
    12     6     7   ar
    13     7     8   ar
    14     8     9   ar
    15     9    12    1
    16    12    13   ar
    17    13    14   ar
    18    14    15   ar
    19    15    16   ar
    20    16    18    1
    21    18    19    1
    22    18    20    1
    23    18    21    1
    24    16    17   ar
    25     9    10   ar
    26    10    11   ar
    27    11     1   ar
    28    11     6   ar
    29    17    12   ar
@<TRIPOS>MOLECULE
*****
 27 29 0 0 0
SMALL
GASTEIGER

@<TRIPOS>ATOM
      1 N         143.0566  139.3417  161.6626 N.ar    1  UNL1       -0.2694
      2 C         143.6751  140.0051  160.4679 C.ar    1  UNL1        0.3331
      3 O         143.8226  139.4021  159.1024 O.2     1  UNL1       -0.2462
      4 N         144.1203  141.3774  160.8785 N.ar    1  UNL1       -0.2630
      5 C         144.7912  142.3876  159.9957 C.3     1  UNL1        0.1366
      6 C         143.7769  141.5621  162.3269 C.ar    1  UNL1        0.1633
      7 N         143.9780  142.7134  163.2672 N.ar    1  UNL1       -0.2251
      8 C         143.5215  142.6066  164.6920 C.ar    1  UNL1        0.1006
      9 C         142.8641  141.3485  165.1766 C.ar    1  UNL1        0.0207
     10 C         142.6630  140.1972  164.2364 C.ar    1  UNL1        0.0219
     11 C         143.1195  140.3040  162.8116 C.ar    1  UNL1        0.0986
     12 C         142.4076  141.2417  166.6015 C.ar    1  UNL1        0.0015
     13 C         141.3749  140.2233  166.9839 C.ar    1  UNL1        0.0000
     14 C         140.9185  140.1165  168.4089 C.ar    1  UNL1       -0.0001
     15 C         141.4948  141.0281  169.4513 C.ar    1  UNL1        0.0039
     16 C         142.5276  142.0466  169.0689 C.ar    1  UNL1        0.0714
     17 C         142.9840  142.1534  167.6440 C.ar    1  UNL1        0.0039
     18 C         143.1039  142.9583  170.1113 C.3     1  UNL1        0.4186
     19 F         143.6802  143.8699  171.1538 F       1  UNL1       -0.1659
     20 F         141.7905  143.6762  170.2096 F       1  UNL1       -0.1659
     21 F         144.4173  142.2403  170.0130 F       1  UNL1       -0.1659
     22 C         142.4768  137.9588  161.7016 C.3     1  UNL1        0.1956
     23 C         138.6368  137.7712  162.6857 C.3     1  UNL1        0.1150
     24 N         139.8878  138.0383  161.9023 N.am    1  UNL1       -0.2744
     25 C         139.8006  138.6519  160.5363 C.3     1  UNL1        0.1150
     26 C         141.2259  137.6918  162.4849 C.2     1  UNL1        0.2490
     27 O         141.3129  137.0781  163.8509 O.2     1  UNL1       -0.2728
@<TRIPOS>BOND
     1    23    24    1
     2    24    25    1
     3    24    26   am
     4    26    27    2
     5    26    22    1
     6    22     1    1
     7     1     2   ar
     8     2     3    2
     9     2     4   ar
    10     4     5    1
    11     4     6   ar
    12     6     7   ar
    13     7     8   ar
    14     8     9   ar
    15     9    12    1
    16    12    13   ar
    17    13    14   ar
    18    14    15   ar
    19    15    16   ar
    20    16    18    1
    21    18    19    1
    22    18    20    1
    23    18    21    1
    24    16    17   ar
    25     9    10   ar
    26    10    11   ar
    27    11     1   ar
    28    11     6   ar
    29    17    12   ar
