@<TRIPOS>MOLECULE
*****
 36 39 0 0 0
SMALL
GASTEIGER

@<TRIPOS>ATOM
      1 N         139.3941  139.7534  165.8947 N.3     1  UNL1       -0.2663
      2 C         140.4347  139.0569  165.0689 C.3     1  UNL1        0.0860
      3 C         141.7545  139.7211  164.8095 C.ar    1  UNL1       -0.0051
      4 C         141.7981  141.1461  164.3435 C.ar    1  UNL1       -0.0020
      5 C         143.1178  141.8102  164.0840 C.ar    1  UNL1        0.0134
      6 C         144.3938  141.0493  164.2906 C.ar    1  UNL1        0.0850
      7 CL        145.7136  141.7134  164.0312 Cl      1  UNL1       -0.0799
      8 C         144.3502  139.6242  164.7566 C.ar    1  UNL1        0.1503
      9 F         145.6262  138.8632  164.9632 F       1  UNL1       -0.2033
     10 C         143.0305  138.9601  165.0160 C.ar    1  UNL1        0.0276
     11 C         140.1557  137.6962  164.5027 C.3     1  UNL1        0.0622
     12 O         141.0058  137.2721  162.0845 O.co2   1  UNL1       -0.5491
     13 C         139.8778  137.5363  163.0373 C.2     1  UNL1        0.0520
     14 O         138.4719  137.6405  162.5248 O.co2   1  UNL1       -0.5491
     15 C         138.1526  140.2865  165.2429 C.3     1  UNL1        0.0994
     16 C         138.2047  141.5689  164.4665 C.ar    1  UNL1       -0.0037
     17 C         137.8226  141.5835  163.0160 C.ar    1  UNL1        0.0003
     18 C         137.8746  142.8659  162.2397 C.ar    1  UNL1        0.0390
     19 C         138.3088  144.1337  162.9138 C.ar    1  UNL1        0.1658
     20 C         138.6908  144.1190  164.3642 C.ar    1  UNL1        0.1735
     21 F         139.1250  145.3867  165.0383 F       1  UNL1       -0.2010
     22 C         138.6388  142.8366  165.1406 C.ar    1  UNL1        0.0299
     23 O         138.3608  145.4161  162.1375 O.3     1  UNL1       -0.4713
     24 C         139.6850  146.0083  161.7554 C.3     1  UNL1        0.2274
     25 C         140.3463  145.6015  160.4720 C.3     1  UNL1        0.1481
     26 N         140.9072  144.2183  160.3229 N.am    1  UNL1       -0.2260
     27 C         142.1891  143.7177  160.9195 C.2     1  UNL1        0.2319
     28 O         143.1353  144.5124  161.7699 O.2     1  UNL1       -0.2745
     29 C         142.3589  142.2829  160.5163 C.3     1  UNL1        0.0953
     30 C         141.1817  141.8968  159.6705 C.3     1  UNL1        0.0953
     31 C         140.2845  143.0929  159.5510 C.2     1  UNL1        0.2319
     32 O         138.9917  143.1531  158.7927 O.2     1  UNL1       -0.2745
     33 C         139.5948  139.9169  167.3721 C.3     1  UNL1        0.0726
     34 C         140.2460  141.1575  167.9078 C.3     1  UNL1        0.0160
     35 C         140.3927  142.1826  168.9930 C.3     1  UNL1        0.0014
     36 C         141.2272  142.2811  167.7504 C.3     1  UNL1        0.0014
@<TRIPOS>UNITY_ATOM_ATTR
12 1
charge -1
@<TRIPOS>BOND
     1    12    13   ar
     2    13    14   ar
     3    13    11    1
     4     2    11    1
     5     2     3    1
     6     3     4   ar
     7     4     5   ar
     8     5     6   ar
     9     6     7    1
    10     6     8   ar
    11     8     9    1
    12     8    10   ar
    13     2     1    1
    14     1    15    1
    15    15    16    1
    16    16    17   ar
    17    17    18   ar
    18    18    19   ar
    19    19    23    1
    20    23    24    1
    21    24    25    1
    22    25    26    1
    23    26    27   am
    24    27    28    2
    25    27    29    1
    26    29    30    1
    27    30    31    1
    28    31    32    2
    29    19    20   ar
    30    20    21    1
    31    20    22   ar
    32     1    33    1
    33    33    34    1
    34    34    35    1
    35    35    36    1
    36    10     3   ar
    37    22    16   ar
    38    36    34    1
    39    31    26   am
@<TRIPOS>MOLECULE
*****
 36 39 0 0 0
SMALL
GASTEIGER

@<TRIPOS>ATOM
      1 N         141.8698  140.2284  167.7212 N.3     1  UNL1       -0.2663
      2 C         142.3985  141.6316  167.6829 C.3     1  UNL1        0.0860
      3 C         142.1981  142.4753  166.4589 C.ar    1  UNL1       -0.0051
      4 C         140.8195  142.9254  166.0757 C.ar    1  UNL1       -0.0020
      5 C         140.6193  143.7692  164.8518 C.ar    1  UNL1        0.0134
      6 C         141.7975  144.1628  164.0112 C.ar    1  UNL1        0.0850
      7 CL        141.5972  145.0066  162.7872 Cl      1  UNL1       -0.0799
      8 C         143.1761  143.7127  164.3944 C.ar    1  UNL1        0.1503
      9 F         144.3544  144.1064  163.5537 F       1  UNL1       -0.2033
     10 C         143.3764  142.8690  165.6183 C.ar    1  UNL1        0.0276
     11 C         143.1275  142.1910  168.8684 C.3     1  UNL1        0.0622
     12 O         140.8968  143.1242  169.8187 O.co2   1  UNL1       -0.5491
     13 C         142.3923  143.0235  169.8766 C.2     1  UNL1        0.0520
     14 O         143.1525  143.7552  170.9427 O.co2   1  UNL1       -0.5491
     15 C         142.6988  139.0996  167.1840 C.3     1  UNL1        0.0994
     16 C         142.6998  138.8035  165.7135 C.ar    1  UNL1       -0.0037
     17 C         143.8278  139.2881  164.8516 C.ar    1  UNL1        0.0003
     18 C         143.8288  138.9921  163.3811 C.ar    1  UNL1        0.0390
     19 C         142.7017  138.2114  162.7725 C.ar    1  UNL1        0.1658
     20 C         141.5737  137.7269  163.6343 C.ar    1  UNL1        0.1735
     21 F         140.4467  136.9464  163.0257 F       1  UNL1       -0.2010
     22 C         141.5728  138.0230  165.1048 C.ar    1  UNL1        0.0299
     23 O         142.7026  137.9154  161.3020 O.3     1  UNL1       -0.4713
     24 C         142.0058  138.8418  160.3500 C.3     1  UNL1        0.2274
     25 C         140.5093  138.8267  160.2489 C.3     1  UNL1        0.1481
     26 N         139.6875  139.6931  161.1566 N.am    1  UNL1       -0.2260
     27 C         138.4022  139.3016  161.8236 C.2     1  UNL1        0.2319
     28 O         137.7132  137.9749  161.7000 O.2     1  UNL1       -0.2745
     29 C         137.9270  140.4696  162.6359 C.3     1  UNL1        0.0953
     30 C         138.9186  141.5830  162.4709 C.3     1  UNL1        0.0953
     31 C         140.0066  141.1030  161.5566 C.2     1  UNL1        0.2319
     32 O         141.2035  141.8942  161.1193 O.2     1  UNL1       -0.2745
     33 C         140.5121  139.9539  168.2968 C.3     1  UNL1        0.0726
     34 C         139.3529  139.6782  167.3856 C.3     1  UNL1        0.0160
     35 C         138.5902  139.9733  166.1282 C.3     1  UNL1        0.0014
     36 C         138.1079  138.9055  167.0648 C.3     1  UNL1        0.0014
@<TRIPOS>UNITY_ATOM_ATTR
12 1
charge -1
@<TRIPOS>BOND
     1    12    13   ar
     2    13    14   ar
     3    13    11    1
     4     2    11    1
     5     2     3    1
     6     3     4   ar
     7     4     5   ar
     8     5     6   ar
     9     6     7    1
    10     6     8   ar
    11     8     9    1
    12     8    10   ar
    13     2     1    1
    14     1    15    1
    15    15    16    1
    16    16    17   ar
    17    17    18   ar
    18    18    19   ar
    19    19    23    1
    20    23    24    1
    21    24    25    1
    22    25    26    1
    23    26    27   am
    24    27    28    2
    25    27    29    1
    26    29    30    1
    27    30    31    1
    28    31    32    2
    29    19    20   ar
    30    20    21    1
    31    20    22   ar
    32     1    33    1
    33    33    34    1
    34    34    35    1
    35    35    36    1
    36    10     3   ar
    37    22    16   ar
    38    36    34    1
    39    31    26   am
@<TRIPOS>MOLECULE
*****
 36 39 0 0 0
SMALL
GASTEIGER

@<TRIPOS>ATOM
      1 N         140.8636  140.5095  167.7738 N.3     1  UNL1       -0.2663
      2 C         141.0891  141.9924  167.7692 C.3     1  UNL1        0.0860
      3 C         141.0437  142.7540  166.4776 C.ar    1  UNL1       -0.0051
      4 C         142.2152  142.7137  165.5417 C.ar    1  UNL1       -0.0020
      5 C         142.1698  143.4752  164.2502 C.ar    1  UNL1        0.0134
      6 C         140.9529  144.2770  163.8947 C.ar    1  UNL1        0.0850
      7 CL        140.9075  145.0385  162.6031 Cl      1  UNL1       -0.0799
      8 C         139.7815  144.3172  164.8306 C.ar    1  UNL1        0.1503
      9 F         138.5646  145.1190  164.4751 F       1  UNL1       -0.2033
     10 C         139.8269  143.5557  166.1221 C.ar    1  UNL1        0.0276
     11 C         141.3600  142.7138  169.0561 C.3     1  UNL1        0.0622
     12 O         139.9944  144.5822  170.2371 O.co2   1  UNL1       -0.5491
     13 C         140.2195  143.1298  169.9372 C.2     1  UNL1        0.0520
     14 O         139.3041  142.0934  170.5184 O.co2   1  UNL1       -0.5491
     15 C         139.5060  139.9563  167.4558 C.3     1  UNL1        0.0994
     16 C         139.1742  139.5435  166.0524 C.ar    1  UNL1       -0.0037
     17 C         139.6836  138.2393  165.5140 C.ar    1  UNL1        0.0003
     18 C         139.3518  137.8265  164.1106 C.ar    1  UNL1        0.0390
     19 C         138.5107  138.7178  163.2456 C.ar    1  UNL1        0.1658
     20 C         138.0014  140.0219  163.7840 C.ar    1  UNL1        0.1735
     21 F         137.1604  140.9132  162.9190 F       1  UNL1       -0.2010
     22 C         138.3332  140.4348  165.1874 C.ar    1  UNL1        0.0299
     23 O         138.1790  138.3050  161.8422 O.3     1  UNL1       -0.4713
     24 C         138.8241  139.0042  160.6824 C.3     1  UNL1        0.2274
     25 C         140.2517  138.7094  160.3288 C.3     1  UNL1        0.1481
     26 N         141.3513  139.5800  160.8605 N.am    1  UNL1       -0.2260
     27 C         141.6049  141.0094  160.4828 C.2     1  UNL1        0.2319
     28 O         140.8034  141.8190  159.5070 O.2     1  UNL1       -0.2745
     29 C         142.8007  141.4870  161.2521 C.3     1  UNL1        0.0953
     30 C         143.2861  140.3528  162.1054 C.3     1  UNL1        0.0953
     31 C         142.3904  139.1742  161.8633 C.2     1  UNL1        0.2319
     32 O         142.5123  137.8265  162.5104 O.2     1  UNL1       -0.2745
     33 C         141.9955  139.5797  168.0963 C.3     1  UNL1        0.0726
     34 C         142.8795  139.0653  166.9991 C.3     1  UNL1        0.0160
     35 C         143.4397  139.1951  165.6137 C.3     1  UNL1        0.0014
     36 C         143.8503  138.0444  166.4840 C.3     1  UNL1        0.0014
@<TRIPOS>UNITY_ATOM_ATTR
12 1
charge -1
@<TRIPOS>BOND
     1    12    13   ar
     2    13    14   ar
     3    13    11    1
     4     2    11    1
     5     2     3    1
     6     3     4   ar
     7     4     5   ar
     8     5     6   ar
     9     6     7    1
    10     6     8   ar
    11     8     9    1
    12     8    10   ar
    13     2     1    1
    14     1    15    1
    15    15    16    1
    16    16    17   ar
    17    17    18   ar
    18    18    19   ar
    19    19    23    1
    20    23    24    1
    21    24    25    1
    22    25    26    1
    23    26    27   am
    24    27    28    2
    25    27    29    1
    26    29    30    1
    27    30    31    1
    28    31    32    2
    29    19    20   ar
    30    20    21    1
    31    20    22   ar
    32     1    33    1
    33    33    34    1
    34    34    35    1
    35    35    36    1
    36    10     3   ar
    37    22    16   ar
    38    36    34    1
    39    31    26   am
@<TRIPOS>MOLECULE
*****
 36 39 0 0 0
SMALL
GASTEIGER

@<TRIPOS>ATOM
      1 N         140.2498  139.9283  168.0705 N.3     1  UNL1       -0.2663
      2 C         141.7411  139.8223  168.1925 C.3     1  UNL1        0.0860
      3 C         142.6095  140.0415  166.9892 C.ar    1  UNL1       -0.0051
      4 C         143.1123  138.8671  166.2031 C.ar    1  UNL1       -0.0020
      5 C         143.9806  139.0864  164.9998 C.ar    1  UNL1        0.0134
      6 C         144.3463  140.4801  164.5827 C.ar    1  UNL1        0.0850
      7 CL        145.2147  140.6993  163.3794 Cl      1  UNL1       -0.0799
      8 C         143.8435  141.6545  165.3688 C.ar    1  UNL1        0.1503
      9 F         144.2091  143.0482  164.9517 F       1  UNL1       -0.2033
     10 C         142.9751  141.4352  166.5720 C.ar    1  UNL1        0.0276
     11 C         142.3639  139.4969  169.5176 C.3     1  UNL1        0.0622
     12 O         143.8113  141.6013  169.9940 O.co2   1  UNL1       -0.5491
     13 C         142.7851  140.6024  170.4400 C.2     1  UNL1        0.0520
     14 O         142.1799  140.7089  171.8084 O.co2   1  UNL1       -0.5491
     15 C         139.5523  139.3523  166.8739 C.3     1  UNL1        0.0994
     16 C         139.0725  140.2570  165.7779 C.ar    1  UNL1       -0.0037
     17 C         138.3162  139.6889  164.6136 C.ar    1  UNL1        0.0003
     18 C         137.8364  140.5936  163.5176 C.ar    1  UNL1        0.0390
     19 C         138.1127  142.0664  163.5859 C.ar    1  UNL1        0.1658
     20 C         138.8689  142.6344  164.7501 C.ar    1  UNL1        0.1735
     21 F         139.1452  144.1071  164.8183 F       1  UNL1       -0.2010
     22 C         139.3488  141.7297  165.8461 C.ar    1  UNL1        0.0299
     23 O         137.6328  142.9711  162.4899 O.3     1  UNL1       -0.4713
     24 C         138.0967  142.7528  161.0801 C.3     1  UNL1        0.2274
     25 C         139.5075  143.0860  160.6947 C.3     1  UNL1        0.1481
     26 N         140.3779  143.8652  161.6355 N.am    1  UNL1       -0.2260
     27 C         140.2102  145.3108  161.9991 C.2     1  UNL1        0.2319
     28 O         139.1426  146.2310  161.4856 O.2     1  UNL1       -0.2745
     29 C         141.2975  145.6747  162.9662 C.3     1  UNL1        0.0953
     30 C         142.1372  144.4540  163.2004 C.3     1  UNL1        0.0953
     31 C         141.5688  143.3357  162.3780 C.2     1  UNL1        0.2319
     32 O         142.0985  141.9340  162.3100 O.2     1  UNL1       -0.2745
     33 C         139.4560  140.6105  169.1450 C.3     1  UNL1        0.0726
     34 C         139.8016  142.0103  169.5586 C.3     1  UNL1        0.0160
     35 C         140.3922  143.3512  169.2378 C.3     1  UNL1        0.0014
     36 C         139.8095  143.0938  170.5958 C.3     1  UNL1        0.0014
@<TRIPOS>UNITY_ATOM_ATTR
12 1
charge -1
@<TRIPOS>BOND
     1    12    13   ar
     2    13    14   ar
     3    13    11    1
     4     2    11    1
     5     2     3    1
     6     3     4   ar
     7     4     5   ar
     8     5     6   ar
     9     6     7    1
    10     6     8   ar
    11     8     9    1
    12     8    10   ar
    13     2     1    1
    14     1    15    1
    15    15    16    1
    16    16    17   ar
    17    17    18   ar
    18    18    19   ar
    19    19    23    1
    20    23    24    1
    21    24    25    1
    22    25    26    1
    23    26    27   am
    24    27    28    2
    25    27    29    1
    26    29    30    1
    27    30    31    1
    28    31    32    2
    29    19    20   ar
    30    20    21    1
    31    20    22   ar
    32     1    33    1
    33    33    34    1
    34    34    35    1
    35    35    36    1
    36    10     3   ar
    37    22    16   ar
    38    36    34    1
    39    31    26   am
@<TRIPOS>MOLECULE
*****
 36 39 0 0 0
SMALL
GASTEIGER

@<TRIPOS>ATOM
      1 N         141.1905  140.4236  167.6093 N.3     1  UNL1       -0.2663
      2 C         141.5739  141.8731  167.5649 C.3     1  UNL1        0.0860
      3 C         141.3046  142.6827  166.3312 C.ar    1  UNL1       -0.0051
      4 C         142.4069  142.9386  165.3466 C.ar    1  UNL1       -0.0020
      5 C         142.1375  143.7481  164.1129 C.ar    1  UNL1        0.0134
      6 C         140.7659  144.3018  163.8638 C.ar    1  UNL1        0.0850
      7 CL        140.4966  145.1113  162.6300 Cl      1  UNL1       -0.0799
      8 C         139.6636  144.0459  164.8483 C.ar    1  UNL1        0.1503
      9 F         138.2920  144.5995  164.5992 F       1  UNL1       -0.2033
     10 C         139.9330  143.2363  166.0820 C.ar    1  UNL1        0.0276
     11 C         142.2266  142.5131  168.7542 C.3     1  UNL1        0.0622
     12 O         140.2680  144.0045  169.5848 O.co2   1  UNL1       -0.5491
     13 C         141.3846  143.0460  169.8755 C.2     1  UNL1        0.0520
     14 O         141.6592  142.6204  171.2874 O.co2   1  UNL1       -0.5491
     15 C         142.1892  139.3716  167.2271 C.3     1  UNL1        0.0994
     16 C         142.3987  139.0260  165.7825 C.ar    1  UNL1       -0.0037
     17 C         141.4893  138.0425  165.1073 C.ar    1  UNL1        0.0003
     18 C         141.6988  137.6968  163.6627 C.ar    1  UNL1        0.0390
     19 C         142.8175  138.3346  162.8935 C.ar    1  UNL1        0.1658
     20 C         143.7268  139.3180  163.5688 C.ar    1  UNL1        0.1735
     21 F         144.8455  139.9558  162.7996 F       1  UNL1       -0.2010
     22 C         143.5173  139.6637  165.0133 C.ar    1  UNL1        0.0299
     23 O         143.0270  137.9889  161.4490 O.3     1  UNL1       -0.4713
     24 C         142.0502  138.4647  160.4147 C.3     1  UNL1        0.2274
     25 C         141.4181  139.8186  160.5467 C.3     1  UNL1        0.1481
     26 N         139.9621  139.9366  160.8871 N.am    1  UNL1       -0.2260
     27 C         138.8148  139.5907  159.9849 C.2     1  UNL1        0.2319
     28 O         138.9221  139.0660  158.5838 O.2     1  UNL1       -0.2745
     29 C         137.5413  139.8615  160.7298 C.3     1  UNL1        0.0953
     30 C         137.9016  140.3749  162.0924 C.3     1  UNL1        0.0953
     31 C         139.3977  140.4213  162.1896 C.2     1  UNL1        0.2319
     32 O         140.1902  140.8730  163.3803 O.2     1  UNL1       -0.2745
     33 C         139.8086  140.0261  168.0360 C.3     1  UNL1        0.0726
     34 C         138.8434  139.4722  167.0302 C.3     1  UNL1        0.0160
     35 C         138.1376  139.5796  165.7110 C.3     1  UNL1        0.0014
     36 C         137.8774  138.4054  166.6074 C.3     1  UNL1        0.0014
@<TRIPOS>UNITY_ATOM_ATTR
12 1
charge -1
@<TRIPOS>BOND
     1    12    13   ar
     2    13    14   ar
     3    13    11    1
     4     2    11    1
     5     2     3    1
     6     3     4   ar
     7     4     5   ar
     8     5     6   ar
     9     6     7    1
    10     6     8   ar
    11     8     9    1
    12     8    10   ar
    13     2     1    1
    14     1    15    1
    15    15    16    1
    16    16    17   ar
    17    17    18   ar
    18    18    19   ar
    19    19    23    1
    20    23    24    1
    21    24    25    1
    22    25    26    1
    23    26    27   am
    24    27    28    2
    25    27    29    1
    26    29    30    1
    27    30    31    1
    28    31    32    2
    29    19    20   ar
    30    20    21    1
    31    20    22   ar
    32     1    33    1
    33    33    34    1
    34    34    35    1
    35    35    36    1
    36    10     3   ar
    37    22    16   ar
    38    36    34    1
    39    31    26   am
@<TRIPOS>MOLECULE
*****
 36 39 0 0 0
SMALL
GASTEIGER

@<TRIPOS>ATOM
      1 N         141.1344  141.9358  167.3930 N.3     1  UNL1       -0.2663
      2 C         140.4750  140.6008  167.5745 C.3     1  UNL1        0.0860
      3 C         140.0013  139.8294  166.3784 C.ar    1  UNL1       -0.0051
      4 C         138.7167  140.2076  165.7027 C.ar    1  UNL1       -0.0020
      5 C         138.2431  139.4362  164.5066 C.ar    1  UNL1        0.0134
      6 C         139.0541  138.2866  163.9863 C.ar    1  UNL1        0.0850
      7 CL        138.5804  137.5152  162.7902 Cl      1  UNL1       -0.0799
      8 C         140.3387  137.9084  164.6620 C.ar    1  UNL1        0.1503
      9 F         141.1497  136.7589  164.1417 F       1  UNL1       -0.2033
     10 C         140.8123  138.6798  165.8581 C.ar    1  UNL1        0.0276
     11 C         140.2893  140.0372  168.9521 C.3     1  UNL1        0.0622
     12 O         138.0242  139.8135  170.2050 O.co2   1  UNL1       -0.5491
     13 C         139.2466  140.6131  169.8639 C.2     1  UNL1        0.0520
     14 O         139.4263  141.9886  170.4345 O.co2   1  UNL1       -0.5491
     15 C         142.6295  142.0295  167.3152 C.3     1  UNL1        0.0994
     16 C         143.3146  141.9967  165.9812 C.ar    1  UNL1       -0.0037
     17 C         143.7707  140.6893  165.4043 C.ar    1  UNL1        0.0003
     18 C         144.4558  140.6566  164.0703 C.ar    1  UNL1        0.0390
     19 C         144.6849  141.9312  163.3133 C.ar    1  UNL1        0.1658
     20 C         144.2288  143.2385  163.8902 C.ar    1  UNL1        0.1735
     21 F         144.4579  144.5130  163.1332 F       1  UNL1       -0.2010
     22 C         143.5437  143.2712  165.2242 C.ar    1  UNL1        0.0299
     23 O         145.3700  141.8984  161.9793 O.3     1  UNL1       -0.4713
     24 C         144.6595  142.4036  160.7586 C.3     1  UNL1        0.2274
     25 C         143.2344  142.0106  160.5039 C.3     1  UNL1        0.1481
     26 N         142.8297  140.5681  160.5768 N.am    1  UNL1       -0.2260
     27 C         143.2878  139.4762  159.6561 C.2     1  UNL1        0.2319
     28 O         144.2311  139.6350  158.5006 O.2     1  UNL1       -0.2745
     29 C         142.6370  138.1975  160.0936 C.3     1  UNL1        0.0953
     30 C         141.7767  138.4992  161.2848 C.3     1  UNL1        0.0953
     31 C         141.8958  139.9643  161.5834 C.2     1  UNL1        0.2319
     32 O         141.2027  140.6969  162.6937 O.2     1  UNL1       -0.2745
     33 C         140.2987  143.1771  167.2892 C.3     1  UNL1        0.0726
     34 C         139.8240  143.6517  165.9477 C.3     1  UNL1        0.0160
     35 C         139.9255  143.6293  164.4514 C.3     1  UNL1        0.0014
     36 C         138.9003  144.4959  165.1207 C.3     1  UNL1        0.0014
@<TRIPOS>UNITY_ATOM_ATTR
12 1
charge -1
@<TRIPOS>BOND
     1    12    13   ar
     2    13    14   ar
     3    13    11    1
     4     2    11    1
     5     2     3    1
     6     3     4   ar
     7     4     5   ar
     8     5     6   ar
     9     6     7    1
    10     6     8   ar
    11     8     9    1
    12     8    10   ar
    13     2     1    1
    14     1    15    1
    15    15    16    1
    16    16    17   ar
    17    17    18   ar
    18    18    19   ar
    19    19    23    1
    20    23    24    1
    21    24    25    1
    22    25    26    1
    23    26    27   am
    24    27    28    2
    25    27    29    1
    26    29    30    1
    27    30    31    1
    28    31    32    2
    29    19    20   ar
    30    20    21    1
    31    20    22   ar
    32     1    33    1
    33    33    34    1
    34    34    35    1
    35    35    36    1
    36    10     3   ar
    37    22    16   ar
    38    36    34    1
    39    31    26   am
@<TRIPOS>MOLECULE
*****
 36 39 0 0 0
SMALL
GASTEIGER

@<TRIPOS>ATOM
      1 N         142.3472  141.7504  167.5456 N.3     1  UNL1       -0.2663
      2 C         140.9857  142.3722  167.6436 C.3     1  UNL1        0.0860
      3 C         140.0199  142.2465  166.5028 C.ar    1  UNL1       -0.0051
      4 C         139.5768  140.8898  166.0413 C.ar    1  UNL1       -0.0020
      5 C         138.6110  140.7641  164.9005 C.ar    1  UNL1        0.0134
      6 C         138.0884  141.9951  164.2212 C.ar    1  UNL1        0.0850
      7 CL        137.1226  141.8694  163.0803 Cl      1  UNL1       -0.0799
      8 C         138.5315  143.3518  164.6826 C.ar    1  UNL1        0.1503
      9 F         138.0089  144.5828  164.0033 F       1  UNL1       -0.2033
     10 C         139.4973  143.4775  165.8234 C.ar    1  UNL1        0.0276
     11 C         140.5900  143.1198  168.8823 C.3     1  UNL1        0.0622
     12 O         139.1032  141.5363  170.3079 O.co2   1  UNL1       -0.5491
     13 C         140.3381  142.3748  170.1597 C.2     1  UNL1        0.0520
     14 O         141.3211  142.4682  171.2888 O.co2   1  UNL1       -0.5491
     15 C         143.5149  142.5707  167.0831 C.3     1  UNL1        0.0994
     16 C         143.7463  142.7859  165.6168 C.ar    1  UNL1       -0.0037
     17 C         144.6511  141.8619  164.8567 C.ar    1  UNL1        0.0003
     18 C         144.8826  142.0772  163.3904 C.ar    1  UNL1        0.0390
     19 C         144.2092  143.2164  162.6841 C.ar    1  UNL1        0.1658
     20 C         143.3044  144.1403  163.4442 C.ar    1  UNL1        0.1735
     21 F         142.6311  145.2795  162.7379 F       1  UNL1       -0.2010
     22 C         143.0730  143.9251  164.9105 C.ar    1  UNL1        0.0299
     23 O         144.4406  143.4317  161.2178 O.3     1  UNL1       -0.4713
     24 C         143.9733  142.4074  160.2265 C.3     1  UNL1        0.2274
     25 C         142.7128  142.6386  159.4470 C.3     1  UNL1        0.1481
     26 N         141.6400  143.5278  160.0023 N.am    1  UNL1       -0.2260
     27 C         141.3774  144.9490  159.6008 C.2     1  UNL1        0.2319
     28 O         142.1414  145.7306  158.5735 O.2     1  UNL1       -0.2745
     29 C         140.2165  145.4515  160.4069 C.3     1  UNL1        0.0953
     30 C         139.7617  144.3407  161.3067 C.3     1  UNL1        0.0953
     31 C         140.6415  143.1519  161.0566 C.2     1  UNL1        0.2319
     32 O         140.5404  141.8208  161.7407 O.2     1  UNL1       -0.2745
     33 C         142.5411  140.3084  167.9102 C.3     1  UNL1        0.0726
     34 C         142.8859  139.3062  166.8486 C.3     1  UNL1        0.0160
     35 C         143.6944  138.1309  166.3853 C.3     1  UNL1        0.0014
     36 C         142.6745  138.7459  165.4734 C.3     1  UNL1        0.0014
@<TRIPOS>UNITY_ATOM_ATTR
12 1
charge -1
@<TRIPOS>BOND
     1    12    13   ar
     2    13    14   ar
     3    13    11    1
     4     2    11    1
     5     2     3    1
     6     3     4   ar
     7     4     5   ar
     8     5     6   ar
     9     6     7    1
    10     6     8   ar
    11     8     9    1
    12     8    10   ar
    13     2     1    1
    14     1    15    1
    15    15    16    1
    16    16    17   ar
    17    17    18   ar
    18    18    19   ar
    19    19    23    1
    20    23    24    1
    21    24    25    1
    22    25    26    1
    23    26    27   am
    24    27    28    2
    25    27    29    1
    26    29    30    1
    27    30    31    1
    28    31    32    2
    29    19    20   ar
    30    20    21    1
    31    20    22   ar
    32     1    33    1
    33    33    34    1
    34    34    35    1
    35    35    36    1
    36    10     3   ar
    37    22    16   ar
    38    36    34    1
    39    31    26   am
@<TRIPOS>MOLECULE
*****
 36 39 0 0 0
SMALL
GASTEIGER

@<TRIPOS>ATOM
      1 N         142.3330  141.6173  167.5807 N.3     1  UNL1       -0.2663
      2 C         140.9547  142.2045  167.6542 C.3     1  UNL1        0.0860
      3 C         140.0072  142.0404  166.5030 C.ar    1  UNL1       -0.0051
      4 C         139.4376  140.6892  166.1871 C.ar    1  UNL1       -0.0020
      5 C         138.4902  140.5252  165.0359 C.ar    1  UNL1        0.0134
      6 C         138.1122  141.7124  164.2006 C.ar    1  UNL1        0.0850
      7 CL        137.1647  141.5483  163.0493 Cl      1  UNL1       -0.0799
      8 C         138.6817  143.0636  164.5165 C.ar    1  UNL1        0.1503
      9 F         138.3038  144.2508  163.6812 F       1  UNL1       -0.2033
     10 C         139.6292  143.2276  165.6677 C.ar    1  UNL1        0.0276
     11 C         140.5239  142.9557  168.8790 C.3     1  UNL1        0.0622
     12 O         139.8414  142.8370  171.3831 O.co2   1  UNL1       -0.5491
     13 C         139.8655  142.2270  170.0129 C.2     1  UNL1        0.0520
     14 O         139.2313  140.8884  169.7767 O.co2   1  UNL1       -0.5491
     15 C         143.4795  142.4535  167.0943 C.3     1  UNL1        0.0994
     16 C         143.6390  142.7274  165.6281 C.ar    1  UNL1       -0.0037
     17 C         144.4134  141.7742  164.7669 C.ar    1  UNL1        0.0003
     18 C         144.5729  142.0481  163.3008 C.ar    1  UNL1        0.0390
     19 C         143.9579  143.2753  162.6959 C.ar    1  UNL1        0.1658
     20 C         143.1834  144.2285  163.5571 C.ar    1  UNL1        0.1735
     21 F         142.5685  145.4555  162.9521 F       1  UNL1       -0.2010
     22 C         143.0240  143.9545  165.0232 C.ar    1  UNL1        0.0299
     23 O         144.1173  143.5492  161.2297 O.3     1  UNL1       -0.4713
     24 C         144.3588  142.4160  160.2770 C.3     1  UNL1        0.2274
     25 C         143.2107  141.5712  159.8100 C.3     1  UNL1        0.1481
     26 N         142.5388  140.6266  160.7620 N.am    1  UNL1       -0.2260
     27 C         142.9352  139.2027  161.0181 C.2     1  UNL1        0.2319
     28 O         144.0730  138.4735  160.3672 O.2     1  UNL1       -0.2745
     29 C         141.9939  138.6360  162.0393 C.3     1  UNL1        0.0953
     30 C         141.0158  139.7098  162.4144 C.3     1  UNL1        0.0953
     31 C         141.3526  140.9399  161.6249 C.2     1  UNL1        0.2319
     32 O         140.6300  142.2529  161.6875 O.2     1  UNL1       -0.2745
     33 C         142.5650  140.1941  167.9935 C.3     1  UNL1        0.0726
     34 C         142.9071  139.1602  166.9619 C.3     1  UNL1        0.0160
     35 C         143.7919  138.0489  166.4803 C.3     1  UNL1        0.0014
     36 C         142.6148  138.4808  165.6570 C.3     1  UNL1        0.0014
@<TRIPOS>UNITY_ATOM_ATTR
12 1
charge -1
@<TRIPOS>BOND
     1    12    13   ar
     2    13    14   ar
     3    13    11    1
     4     2    11    1
     5     2     3    1
     6     3     4   ar
     7     4     5   ar
     8     5     6   ar
     9     6     7    1
    10     6     8   ar
    11     8     9    1
    12     8    10   ar
    13     2     1    1
    14     1    15    1
    15    15    16    1
    16    16    17   ar
    17    17    18   ar
    18    18    19   ar
    19    19    23    1
    20    23    24    1
    21    24    25    1
    22    25    26    1
    23    26    27   am
    24    27    28    2
    25    27    29    1
    26    29    30    1
    27    30    31    1
    28    31    32    2
    29    19    20   ar
    30    20    21    1
    31    20    22   ar
    32     1    33    1
    33    33    34    1
    34    34    35    1
    35    35    36    1
    36    10     3   ar
    37    22    16   ar
    38    36    34    1
    39    31    26   am
@<TRIPOS>MOLECULE
*****
 36 39 0 0 0
SMALL
GASTEIGER

@<TRIPOS>ATOM
      1 N         139.2986  138.2076  163.8099 N.3     1  UNL1       -0.2663
      2 C         140.7863  138.3962  163.7760 C.3     1  UNL1        0.0860
      3 C         141.4356  139.4019  164.6800 C.ar    1  UNL1       -0.0051
      4 C         141.5961  140.8232  164.2281 C.ar    1  UNL1       -0.0020
      5 C         142.2453  141.8288  165.1321 C.ar    1  UNL1        0.0134
      6 C         142.7340  141.4131  166.4879 C.ar    1  UNL1        0.0850
      7 CL        143.3833  142.4188  167.3919 Cl      1  UNL1       -0.0799
      8 C         142.5735  139.9919  166.9398 C.ar    1  UNL1        0.1503
      9 F         143.0623  139.5763  168.2957 F       1  UNL1       -0.2033
     10 C         141.9243  138.9863  166.0358 C.ar    1  UNL1        0.0276
     11 C         141.6248  137.5792  162.8382 C.3     1  UNL1        0.0622
     12 O         141.7603  139.0827  160.7236 O.co2   1  UNL1       -0.5491
     13 C         142.4389  138.2569  161.7761 C.2     1  UNL1        0.0520
     14 O         143.9315  138.1087  161.7664 O.co2   1  UNL1       -0.5491
     15 C         138.4423  138.8038  162.7322 C.3     1  UNL1        0.0994
     16 C         138.3169  140.2937  162.6122 C.ar    1  UNL1       -0.0037
     17 C         138.6168  140.9689  161.3066 C.ar    1  UNL1        0.0003
     18 C         138.4914  142.4588  161.1866 C.ar    1  UNL1        0.0390
     19 C         138.0661  143.2736  162.3722 C.ar    1  UNL1        0.1658
     20 C         137.7662  142.5984  163.6776 C.ar    1  UNL1        0.1735
     21 F         137.3410  143.4132  164.8630 F       1  UNL1       -0.2010
     22 C         137.8916  141.1085  163.7976 C.ar    1  UNL1        0.0299
     23 O         137.9407  144.7635  162.2522 O.3     1  UNL1       -0.4713
     24 C         139.1423  145.6366  162.4620 C.3     1  UNL1        0.2274
     25 C         140.1732  145.7663  161.3802 C.3     1  UNL1        0.1481
     26 N         141.3624  144.8523  161.3640 N.am    1  UNL1       -0.2260
     27 C         142.3499  144.6704  162.4784 C.2     1  UNL1        0.2319
     28 O         142.3216  145.3707  163.8046 O.2     1  UNL1       -0.2745
     29 C         143.3708  143.6654  162.0338 C.3     1  UNL1        0.0953
     30 C         143.0142  143.2260  160.6445 C.3     1  UNL1        0.0953
     31 C         141.7730  143.9596  160.2307 C.2     1  UNL1        0.2319
     32 O         141.0664  143.8242  158.9145 O.2     1  UNL1       -0.2745
     33 C         138.6672  137.4228  164.9213 C.3     1  UNL1        0.0726
     34 C         138.2463  138.1155  166.1834 C.3     1  UNL1        0.0160
     35 C         137.3169  138.2283  167.3554 C.3     1  UNL1        0.0014
     36 C         138.4465  139.2025  167.1975 C.3     1  UNL1        0.0014
@<TRIPOS>UNITY_ATOM_ATTR
12 1
charge -1
@<TRIPOS>BOND
     1    12    13   ar
     2    13    14   ar
     3    13    11    1
     4     2    11    1
     5     2     3    1
     6     3     4   ar
     7     4     5   ar
     8     5     6   ar
     9     6     7    1
    10     6     8   ar
    11     8     9    1
    12     8    10   ar
    13     2     1    1
    14     1    15    1
    15    15    16    1
    16    16    17   ar
    17    17    18   ar
    18    18    19   ar
    19    19    23    1
    20    23    24    1
    21    24    25    1
    22    25    26    1
    23    26    27   am
    24    27    28    2
    25    27    29    1
    26    29    30    1
    27    30    31    1
    28    31    32    2
    29    19    20   ar
    30    20    21    1
    31    20    22   ar
    32     1    33    1
    33    33    34    1
    34    34    35    1
    35    35    36    1
    36    10     3   ar
    37    22    16   ar
    38    36    34    1
    39    31    26   am
