@<TRIPOS>MOLECULE
*****
 33 37 0 0 0
SMALL
GASTEIGER

@<TRIPOS>ATOM
      1 C         143.0435  138.3994  158.2193 C.2     1  UNL1        0.0866
      2 N         143.9313  139.5337  157.8007 N.2     1  UNL1       -0.1523
      3 N         144.3767  140.2549  159.0383 N.2     1  UNL1       -0.1523
      4 C         143.7640  139.5663  160.2218 C.2     1  UNL1        0.0858
      5 C         142.9401  138.4196  159.7156 C.3     1  UNL1        0.0883
      6 C         142.3275  137.7310  160.8990 C.3     1  UNL1        0.0384
      7 C         142.7728  138.4522  162.1367 C.ar    1  UNL1       -0.0205
      8 C         142.4846  138.2225  163.5907 C.ar    1  UNL1       -0.0071
      9 C         143.0841  139.1271  164.6261 C.ar    1  UNL1       -0.0065
     10 C         143.9719  140.2614  164.2075 C.ar    1  UNL1       -0.0029
     11 C         144.2602  140.4910  162.7535 C.ar    1  UNL1        0.0006
     12 C         143.6606  139.5864  161.7181 C.ar    1  UNL1        0.0117
     13 C         141.9144  135.4245  155.9966 C.ar    1  UNL1        0.0710
     14 C         142.8984  136.0606  156.9333 C.ar    1  UNL1        0.0165
     15 C         142.3762  137.4174  157.3025 C.ar    1  UNL1        0.0233
     16 C         141.0696  137.6200  156.5941 C.ar    1  UNL1        0.0373
     17 S         140.7842  136.3882  155.7870 S.2     1  UNL1       -0.0780
     18 C         142.1634  132.7028  154.7598 C.1     1  UNL1       -0.0534
     19 C         142.0389  134.0636  155.3782 C.1     1  UNL1       -0.0554
     20 C         142.2877  131.3418  154.1413 C.3     1  UNL1        0.2182
     21 O         143.5899  130.9096  153.5352 O.3     1  UNL1       -0.3374
     22 C         144.5633  130.1047  154.3444 C.3     1  UNL1        0.1755
     23 C         144.7518  130.4011  155.8026 C.3     1  UNL1        0.1743
     24 C         145.1938  132.1773  157.6465 C.3     1  UNL1        0.1742
     25 O         145.3531  131.7067  156.2312 O.3     1  UNL1       -0.3484
     26 C         142.7959  138.8975  166.0802 C.3     1  UNL1        0.0992
     27 N         142.2097  139.9998  166.9117 N.3     1  UNL1       -0.2665
     28 C         141.1482  140.8899  166.3364 C.3     1  UNL1        0.0899
     29 C         140.5620  141.9921  167.1680 C.3     1  UNL1        0.0897
     30 N         141.0374  142.2042  168.5748 N.3     1  UNL1       -0.2691
     31 C         140.4513  143.3065  169.4064 C.3     1  UNL1        0.0897
     32 C         142.0989  141.3142  169.1500 C.3     1  UNL1        0.0897
     33 C         142.6851  140.2119  168.3184 C.3     1  UNL1        0.0899
@<TRIPOS>BOND
     1    24    25    1
     2    25    23    1
     3    23    22    1
     4    22    21    1
     5    21    20    1
     6    20    18    1
     7    18    19    3
     8    19    13    1
     9    13    14   ar
    10    14    15   ar
    11    15     1    1
    12     1     2    2
    13     2     3    1
    14     3     4    2
    15     4     5    1
    16     5     6    1
    17     6     7    1
    18     7     8   ar
    19     8     9   ar
    20     9    26    1
    21    26    27    1
    22    27    28    1
    23    28    29    1
    24    29    30    1
    25    30    31    1
    26    30    32    1
    27    32    33    1
    28     9    10   ar
    29    10    11   ar
    30    11    12   ar
    31    15    16   ar
    32    16    17   ar
    33    17    13   ar
    34     5     1    1
    35    12     7   ar
    36    12     4    1
    37    33    27    1
@<TRIPOS>MOLECULE
*****
 33 37 0 0 0
SMALL
GASTEIGER

@<TRIPOS>ATOM
      1 C         139.9786  139.9829  167.7326 C.2     1  UNL1        0.0866
      2 N         138.6249  139.3651  167.9216 N.2     1  UNL1       -0.1523
      3 N         138.2226  138.7246  166.6262 N.2     1  UNL1       -0.1523
      4 C         139.3278  138.9466  165.6365 C.2     1  UNL1        0.0858
      5 C         140.4130  139.7243  166.3203 C.3     1  UNL1        0.0883
      6 C         141.5181  139.9463  165.3307 C.3     1  UNL1        0.0384
      7 C         141.1160  139.3059  164.0353 C.ar    1  UNL1       -0.0205
      8 C         141.8075  139.2055  162.7080 C.ar    1  UNL1       -0.0071
      9 C         141.1453  138.4873  161.5698 C.ar    1  UNL1       -0.0065
     10 C         139.7916  137.8694  161.7588 C.ar    1  UNL1       -0.0029
     11 C         139.1001  137.9698  163.0861 C.ar    1  UNL1        0.0006
     12 C         139.7623  138.6880  164.2243 C.ar    1  UNL1        0.0117
     13 C         142.5357  141.9460  169.8942 C.ar    1  UNL1        0.0710
     14 C         142.1455  141.2803  168.6078 C.ar    1  UNL1        0.0165
     15 C         140.7606  140.7285  168.7731 C.ar    1  UNL1        0.0233
     16 C         140.2948  141.0531  170.1615 C.ar    1  UNL1        0.0373
     17 S         141.3920  141.8056  170.8544 S.2     1  UNL1       -0.0780
     18 C         145.1455  143.3174  170.4489 C.1     1  UNL1       -0.0534
     19 C         143.8407  142.6317  170.1715 C.1     1  UNL1       -0.0554
     20 C         146.4505  144.0033  170.7263 C.3     1  UNL1        0.2182
     21 O         146.5689  145.4885  170.5532 O.3     1  UNL1       -0.3374
     22 C         146.1335  146.4090  171.6546 C.3     1  UNL1        0.1755
     23 C         146.0510  145.9047  173.0649 C.3     1  UNL1        0.1743
     24 C         148.6252  146.1458  173.3202 C.3     1  UNL1        0.1742
     25 O         147.2788  145.8812  173.9261 O.3     1  UNL1       -0.3484
     26 C         141.8369  138.3868  160.2424 C.3     1  UNL1        0.0992
     27 N         141.5793  139.4168  159.1828 N.3     1  UNL1       -0.2665
     28 C         140.7276  139.0752  157.9961 C.3     1  UNL1        0.0899
     29 C         140.4701  140.1051  156.9365 C.3     1  UNL1        0.0897
     30 N         141.0642  141.4767  157.0634 N.3     1  UNL1       -0.2691
     31 C         140.8066  142.5066  156.0038 C.3     1  UNL1        0.0897
     32 C         141.9158  141.8182  158.2500 C.3     1  UNL1        0.0897
     33 C         142.1734  140.7882  159.3097 C.3     1  UNL1        0.0899
@<TRIPOS>BOND
     1    24    25    1
     2    25    23    1
     3    23    22    1
     4    22    21    1
     5    21    20    1
     6    20    18    1
     7    18    19    3
     8    19    13    1
     9    13    14   ar
    10    14    15   ar
    11    15     1    1
    12     1     2    2
    13     2     3    1
    14     3     4    2
    15     4     5    1
    16     5     6    1
    17     6     7    1
    18     7     8   ar
    19     8     9   ar
    20     9    26    1
    21    26    27    1
    22    27    28    1
    23    28    29    1
    24    29    30    1
    25    30    31    1
    26    30    32    1
    27    32    33    1
    28     9    10   ar
    29    10    11   ar
    30    11    12   ar
    31    15    16   ar
    32    16    17   ar
    33    17    13   ar
    34     5     1    1
    35    12     7   ar
    36    12     4    1
    37    33    27    1
@<TRIPOS>MOLECULE
*****
 33 37 0 0 0
SMALL
GASTEIGER

@<TRIPOS>ATOM
      1 C         139.1919  140.5346  161.7996 C.2     1  UNL1        0.0866
      2 N         137.8646  140.8192  161.1614 N.2     1  UNL1       -0.1523
      3 N         137.8566  140.1812  159.8038 N.2     1  UNL1       -0.1523
      4 C         139.1791  139.5023  159.6030 C.2     1  UNL1        0.0858
      5 C         140.0043  139.7207  160.8364 C.3     1  UNL1        0.0883
      6 C         141.3267  139.0419  160.6356 C.3     1  UNL1        0.0384
      7 C         141.3188  138.4038  159.2781 C.ar    1  UNL1       -0.0205
      8 C         142.3487  137.6005  158.5406 C.ar    1  UNL1       -0.0071
      9 C         142.0514  137.0818  157.1650 C.ar    1  UNL1       -0.0065
     10 C         140.7240  137.3663  156.5268 C.ar    1  UNL1       -0.0029
     11 C         139.6941  138.1696  157.2643 C.ar    1  UNL1        0.0006
     12 C         139.9915  138.6884  158.6399 C.ar    1  UNL1        0.0117
     13 C         139.9143  141.1174  165.5684 C.ar    1  UNL1        0.0710
     14 C         139.2568  140.3427  164.4649 C.ar    1  UNL1        0.0165
     15 C         139.6299  140.9849  163.1617 C.ar    1  UNL1        0.0233
     16 C         140.5180  142.1565  163.4597 C.ar    1  UNL1        0.0373
     17 S         140.6938  142.2383  164.9472 S.2     1  UNL1       -0.0780
     18 C         139.7066  140.5282  168.5025 C.1     1  UNL1       -0.0534
     19 C         139.8104  140.8228  167.0355 C.1     1  UNL1       -0.0554
     20 C         139.6028  140.2335  169.9697 C.3     1  UNL1        0.2182
     21 O         139.9194  141.3021  170.9736 O.3     1  UNL1       -0.3374
     22 C         140.7754  142.4698  170.5814 C.3     1  UNL1        0.1755
     23 C         142.2672  142.3835  170.7121 C.3     1  UNL1        0.1743
     24 C         143.1017  142.2498  168.2553 C.3     1  UNL1        0.1742
     25 O         143.1475  142.8930  169.6097 O.3     1  UNL1       -0.3484
     26 C         143.0813  136.2784  156.4275 C.3     1  UNL1        0.0992
     27 N         143.0022  134.7805  156.4233 N.3     1  UNL1       -0.2665
     28 C         143.9522  133.9769  157.2611 C.3     1  UNL1        0.0899
     29 C         143.8732  132.4790  157.2569 C.3     1  UNL1        0.0897
     30 N         142.8441  131.7847  156.4149 N.3     1  UNL1       -0.2691
     31 C         142.7650  130.2868  156.4107 C.3     1  UNL1        0.0897
     32 C         141.8942  132.5882  155.5771 C.3     1  UNL1        0.0897
     33 C         141.9733  134.0861  155.5813 C.3     1  UNL1        0.0899
@<TRIPOS>BOND
     1    24    25    1
     2    25    23    1
     3    23    22    1
     4    22    21    1
     5    21    20    1
     6    20    18    1
     7    18    19    3
     8    19    13    1
     9    13    14   ar
    10    14    15   ar
    11    15     1    1
    12     1     2    2
    13     2     3    1
    14     3     4    2
    15     4     5    1
    16     5     6    1
    17     6     7    1
    18     7     8   ar
    19     8     9   ar
    20     9    26    1
    21    26    27    1
    22    27    28    1
    23    28    29    1
    24    29    30    1
    25    30    31    1
    26    30    32    1
    27    32    33    1
    28     9    10   ar
    29    10    11   ar
    30    11    12   ar
    31    15    16   ar
    32    16    17   ar
    33    17    13   ar
    34     5     1    1
    35    12     7   ar
    36    12     4    1
    37    33    27    1
@<TRIPOS>MOLECULE
*****
 33 37 0 0 0
SMALL
GASTEIGER

@<TRIPOS>ATOM
      1 C         138.6078  140.9437  158.5080 C.2     1  UNL1        0.0866
      2 N         138.4031  142.4275  158.4277 N.2     1  UNL1       -0.1523
      3 N         138.2645  142.9528  159.8259 N.2     1  UNL1       -0.1523
      4 C         138.3835  141.7935  160.7704 C.2     1  UNL1        0.0858
      5 C         138.5957  140.5519  159.9559 C.3     1  UNL1        0.0883
      6 C         138.7146  139.3928  160.9004 C.3     1  UNL1        0.0384
      7 C         138.5760  139.9179  162.2987 C.ar    1  UNL1       -0.0205
      8 C         138.6097  139.2368  163.6346 C.ar    1  UNL1       -0.0071
      9 C         138.4388  140.0394  164.8902 C.ar    1  UNL1       -0.0065
     10 C         138.2341  141.5232  164.8098 C.ar    1  UNL1       -0.0029
     11 C         138.2004  142.2044  163.4739 C.ar    1  UNL1        0.0006
     12 C         138.3714  141.4017  162.2183 C.ar    1  UNL1        0.0117
     13 C         139.5038  138.1390  155.9790 C.ar    1  UNL1        0.0710
     14 C         139.5930  138.7465  157.3476 C.ar    1  UNL1        0.0165
     15 C         138.7922  140.0148  157.3448 C.ar    1  UNL1        0.0233
     16 C         138.2081  140.1913  155.9745 C.ar    1  UNL1        0.0373
     17 S         138.6480  139.0319  155.1304 S.2     1  UNL1       -0.0780
     18 C         140.8083  135.5864  155.0946 C.1     1  UNL1       -0.0534
     19 C         140.1561  136.8627  155.5368 C.1     1  UNL1       -0.0554
     20 C         141.4606  134.3100  154.6525 C.3     1  UNL1        0.2182
     21 O         141.7193  133.2165  155.6461 O.3     1  UNL1       -0.3374
     22 C         143.1019  133.0085  156.1893 C.3     1  UNL1        0.1755
     23 C         143.6239  133.9030  157.2744 C.3     1  UNL1        0.1743
     24 C         145.5082  132.2736  158.0122 C.3     1  UNL1        0.1742
     25 O         144.5107  133.3428  158.3465 O.3     1  UNL1       -0.3484
     26 C         138.4725  139.3582  166.2262 C.3     1  UNL1        0.0992
     27 N         139.5780  139.6598  167.1942 N.3     1  UNL1       -0.2665
     28 C         141.0064  139.6182  166.7380 C.3     1  UNL1        0.0899
     29 C         142.1119  139.9198  167.7059 C.3     1  UNL1        0.0897
     30 N         141.7890  140.2630  169.1300 N.3     1  UNL1       -0.2691
     31 C         142.8945  140.5646  170.0979 C.3     1  UNL1        0.0897
     32 C         140.3607  140.3046  169.5861 C.3     1  UNL1        0.0897
     33 C         139.2552  140.0030  168.6182 C.3     1  UNL1        0.0899
@<TRIPOS>BOND
     1    24    25    1
     2    25    23    1
     3    23    22    1
     4    22    21    1
     5    21    20    1
     6    20    18    1
     7    18    19    3
     8    19    13    1
     9    13    14   ar
    10    14    15   ar
    11    15     1    1
    12     1     2    2
    13     2     3    1
    14     3     4    2
    15     4     5    1
    16     5     6    1
    17     6     7    1
    18     7     8   ar
    19     8     9   ar
    20     9    26    1
    21    26    27    1
    22    27    28    1
    23    28    29    1
    24    29    30    1
    25    30    31    1
    26    30    32    1
    27    32    33    1
    28     9    10   ar
    29    10    11   ar
    30    11    12   ar
    31    15    16   ar
    32    16    17   ar
    33    17    13   ar
    34     5     1    1
    35    12     7   ar
    36    12     4    1
    37    33    27    1
@<TRIPOS>MOLECULE
*****
 33 37 0 0 0
SMALL
GASTEIGER

@<TRIPOS>ATOM
      1 C         138.4379  140.1769  159.0927 C.2     1  UNL1        0.0866
      2 N         137.5097  140.6016  157.9935 N.2     1  UNL1       -0.1523
      3 N         137.9928  139.9843  156.7146 N.2     1  UNL1       -0.1523
      4 C         139.2196  139.1781  157.0234 C.2     1  UNL1        0.0858
      5 C         139.4946  139.2972  158.4932 C.3     1  UNL1        0.0883
      6 C         140.7212  138.4910  158.8019 C.3     1  UNL1        0.0384
      7 C         141.2044  137.8737  157.5230 C.ar    1  UNL1       -0.0205
      8 C         142.3695  136.9799  157.2174 C.ar    1  UNL1       -0.0071
      9 C         142.6065  136.5106  155.8126 C.ar    1  UNL1       -0.0065
     10 C         141.6784  136.9353  154.7134 C.ar    1  UNL1       -0.0029
     11 C         140.5133  137.8292  155.0190 C.ar    1  UNL1        0.0006
     12 C         140.2763  138.2984  156.4238 C.ar    1  UNL1        0.0117
     13 C         138.1798  140.4359  162.9569 C.ar    1  UNL1        0.0710
     14 C         138.2959  139.6203  161.7033 C.ar    1  UNL1        0.0165
     15 C         138.3285  140.5640  160.5378 C.ar    1  UNL1        0.0233
     16 C         138.2325  141.9628  161.0710 C.ar    1  UNL1        0.0373
     17 S         138.1406  141.8835  162.5661 S.2     1  UNL1       -0.0780
     18 C         138.0489  139.3604  165.7543 C.1     1  UNL1       -0.0534
     19 C         138.1144  139.8981  164.3556 C.1     1  UNL1       -0.0554
     20 C         137.9834  138.8226  167.1531 C.3     1  UNL1        0.2182
     21 O         138.7302  139.5109  168.2570 O.3     1  UNL1       -0.3374
     22 C         140.0085  140.2367  167.9588 C.3     1  UNL1        0.1755
     23 C         140.8162  140.8239  169.0781 C.3     1  UNL1        0.1743
     24 C         140.3805  143.2798  169.8053 C.3     1  UNL1        0.1742
     25 O         140.1884  141.8078  170.0203 O.3     1  UNL1       -0.3484
     26 C         143.7716  135.6167  155.5069 C.3     1  UNL1        0.0992
     27 N         143.6841  134.1467  155.7919 N.3     1  UNL1       -0.2665
     28 C         143.1270  133.2140  154.7575 C.3     1  UNL1        0.0899
     29 C         143.0395  131.7439  155.0426 C.3     1  UNL1        0.0897
     30 N         143.5090  131.2065  156.3620 N.3     1  UNL1       -0.2691
     31 C         143.4214  129.7365  156.6470 C.3     1  UNL1        0.0897
     32 C         144.0660  132.1392  157.3963 C.3     1  UNL1        0.0897
     33 C         144.1536  133.6092  157.1113 C.3     1  UNL1        0.0899
@<TRIPOS>BOND
     1    24    25    1
     2    25    23    1
     3    23    22    1
     4    22    21    1
     5    21    20    1
     6    20    18    1
     7    18    19    3
     8    19    13    1
     9    13    14   ar
    10    14    15   ar
    11    15     1    1
    12     1     2    2
    13     2     3    1
    14     3     4    2
    15     4     5    1
    16     5     6    1
    17     6     7    1
    18     7     8   ar
    19     8     9   ar
    20     9    26    1
    21    26    27    1
    22    27    28    1
    23    28    29    1
    24    29    30    1
    25    30    31    1
    26    30    32    1
    27    32    33    1
    28     9    10   ar
    29    10    11   ar
    30    11    12   ar
    31    15    16   ar
    32    16    17   ar
    33    17    13   ar
    34     5     1    1
    35    12     7   ar
    36    12     4    1
    37    33    27    1
@<TRIPOS>MOLECULE
*****
 33 37 0 0 0
SMALL
GASTEIGER

@<TRIPOS>ATOM
      1 C         142.0812  140.6146  162.6381 C.2     1  UNL1        0.0866
      2 N         142.9871  141.8066  162.5469 N.2     1  UNL1       -0.1523
      3 N         143.5636  141.8460  161.1627 N.2     1  UNL1       -0.1523
      4 C         143.0140  140.6782  160.3983 C.2     1  UNL1        0.0858
      5 C         142.0978  139.9172  161.3102 C.3     1  UNL1        0.0883
      6 C         141.5482  138.7494  160.5458 C.3     1  UNL1        0.0384
      7 C         142.1247  138.7887  159.1616 C.ar    1  UNL1       -0.0205
      8 C         141.9418  137.8930  157.9724 C.ar    1  UNL1       -0.0071
      9 C         142.6647  138.1894  156.6920 C.ar    1  UNL1       -0.0065
     10 C         143.5706  139.3814  156.6008 C.ar    1  UNL1       -0.0029
     11 C         143.7536  140.2771  157.7900 C.ar    1  UNL1        0.0006
     12 C         143.0306  139.9807  159.0704 C.ar    1  UNL1        0.0117
     13 C         140.5582  139.9321  166.1424 C.ar    1  UNL1        0.0710
     14 C         141.5947  140.5708  165.2661 C.ar    1  UNL1        0.0165
     15 C         141.2965  140.1938  163.8452 C.ar    1  UNL1        0.0233
     16 C         140.0757  139.3221  163.8433 C.ar    1  UNL1        0.0373
     17 S         139.6194  139.1604  165.2631 S.2     1  UNL1       -0.0780
     18 C         140.3920  140.1584  169.1291 C.1     1  UNL1       -0.0534
     19 C         140.4751  140.0453  167.6358 C.1     1  UNL1       -0.0554
     20 C         140.3089  140.2715  170.6226 C.3     1  UNL1        0.2182
     21 O         140.0974  141.6115  171.2627 O.3     1  UNL1       -0.3374
     22 C         139.8954  142.8275  170.4080 C.3     1  UNL1        0.1755
     23 C         141.0304  143.7817  170.1811 C.3     1  UNL1        0.1743
     24 C         143.2595  142.5521  169.6625 C.3     1  UNL1        0.1742
     25 O         142.4246  143.3969  170.5785 O.3     1  UNL1       -0.3484
     26 C         142.4818  137.2937  155.5027 C.3     1  UNL1        0.0992
     27 N         142.5088  135.8038  155.6747 N.3     1  UNL1       -0.2665
     28 C         141.3768  134.9682  155.1546 C.3     1  UNL1        0.0899
     29 C         141.4038  133.4783  155.3266 C.3     1  UNL1        0.0897
     30 N         142.5628  132.8241  156.0186 N.3     1  UNL1       -0.2691
     31 C         142.5898  131.3342  156.1906 C.3     1  UNL1        0.0897
     32 C         143.6947  133.6597  156.5387 C.3     1  UNL1        0.0897
     33 C         143.6677  135.1496  156.3667 C.3     1  UNL1        0.0899
@<TRIPOS>BOND
     1    24    25    1
     2    25    23    1
     3    23    22    1
     4    22    21    1
     5    21    20    1
     6    20    18    1
     7    18    19    3
     8    19    13    1
     9    13    14   ar
    10    14    15   ar
    11    15     1    1
    12     1     2    2
    13     2     3    1
    14     3     4    2
    15     4     5    1
    16     5     6    1
    17     6     7    1
    18     7     8   ar
    19     8     9   ar
    20     9    26    1
    21    26    27    1
    22    27    28    1
    23    28    29    1
    24    29    30    1
    25    30    31    1
    26    30    32    1
    27    32    33    1
    28     9    10   ar
    29    10    11   ar
    30    11    12   ar
    31    15    16   ar
    32    16    17   ar
    33    17    13   ar
    34     5     1    1
    35    12     7   ar
    36    12     4    1
    37    33    27    1
@<TRIPOS>MOLECULE
*****
 33 37 0 0 0
SMALL
GASTEIGER

@<TRIPOS>ATOM
      1 C         139.1872  140.8956  162.2242 C.2     1  UNL1        0.0866
      2 N         138.2241  141.7720  161.4797 N.2     1  UNL1       -0.1523
      3 N         138.4361  141.5509  160.0112 N.2     1  UNL1       -0.1523
      4 C         139.5302  140.5378  159.8483 C.2     1  UNL1        0.0858
      5 C         139.9944  140.1328  161.2159 C.3     1  UNL1        0.0883
      6 C         141.0886  139.1198  161.0529 C.3     1  UNL1        0.0384
      7 C         141.3006  138.8986  159.5845 C.ar    1  UNL1       -0.0205
      8 C         142.2462  138.0125  158.8292 C.ar    1  UNL1       -0.0071
      9 C         142.2287  138.0028  157.3294 C.ar    1  UNL1       -0.0065
     10 C         141.2656  138.8792  156.5848 C.ar    1  UNL1       -0.0029
     11 C         140.3200  139.7653  157.3401 C.ar    1  UNL1        0.0006
     12 C         140.3375  139.7750  158.8400 C.ar    1  UNL1        0.0117
     13 C         139.7760  141.3560  166.0330 C.ar    1  UNL1        0.0710
     14 C         139.8056  141.8843  164.6294 C.ar    1  UNL1        0.0165
     15 C         139.3199  140.7989  163.7152 C.ar    1  UNL1        0.0233
     16 C         138.9900  139.5996  164.5537 C.ar    1  UNL1        0.0373
     17 S         139.2719  139.9440  165.9862 S.2     1  UNL1       -0.0780
     18 C         140.5831  142.8594  168.5003 C.1     1  UNL1       -0.0534
     19 C         140.1795  142.1077  167.2667 C.1     1  UNL1       -0.0554
     20 C         140.9866  143.6112  169.7341 C.3     1  UNL1        0.2182
     21 O         141.7451  142.9128  170.8235 O.3     1  UNL1       -0.3374
     22 C         141.9329  141.4255  170.7720 C.3     1  UNL1        0.1755
     23 C         140.8251  140.5140  171.2103 C.3     1  UNL1        0.1743
     24 C         138.5574  140.2025  169.9814 C.3     1  UNL1        0.1742
     25 O         139.9888  139.8042  170.1873 O.3     1  UNL1       -0.3484
     26 C         143.1743  137.1166  156.5740 C.3     1  UNL1        0.0992
     27 N         142.8234  135.6783  156.3327 N.3     1  UNL1       -0.2665
     28 C         143.4894  134.5992  157.1342 C.3     1  UNL1        0.0899
     29 C         143.1385  133.1609  156.8930 C.3     1  UNL1        0.0897
     30 N         142.1217  132.8017  155.8503 N.3     1  UNL1       -0.2691
     31 C         141.7708  131.3634  155.6091 C.3     1  UNL1        0.0897
     32 C         141.4558  133.8807  155.0489 C.3     1  UNL1        0.0897
     33 C         141.8067  135.3190  155.2901 C.3     1  UNL1        0.0899
@<TRIPOS>BOND
     1    24    25    1
     2    25    23    1
     3    23    22    1
     4    22    21    1
     5    21    20    1
     6    20    18    1
     7    18    19    3
     8    19    13    1
     9    13    14   ar
    10    14    15   ar
    11    15     1    1
    12     1     2    2
    13     2     3    1
    14     3     4    2
    15     4     5    1
    16     5     6    1
    17     6     7    1
    18     7     8   ar
    19     8     9   ar
    20     9    26    1
    21    26    27    1
    22    27    28    1
    23    28    29    1
    24    29    30    1
    25    30    31    1
    26    30    32    1
    27    32    33    1
    28     9    10   ar
    29    10    11   ar
    30    11    12   ar
    31    15    16   ar
    32    16    17   ar
    33    17    13   ar
    34     5     1    1
    35    12     7   ar
    36    12     4    1
    37    33    27    1
@<TRIPOS>MOLECULE
*****
 33 37 0 0 0
SMALL
GASTEIGER

@<TRIPOS>ATOM
      1 C         142.1353  143.1461  162.0196 C.2     1  UNL1        0.0866
      2 N         142.7062  144.4248  161.4819 N.2     1  UNL1       -0.1523
      3 N         142.0141  144.7332  160.1873 N.2     1  UNL1       -0.1523
      4 C         141.0155  143.6450  159.9248 C.2     1  UNL1        0.0858
      5 C         141.0905  142.6642  161.0573 C.3     1  UNL1        0.0883
      6 C         140.0919  141.5761  160.7948 C.3     1  UNL1        0.0384
      7 C         139.3998  141.8844  159.5002 C.ar    1  UNL1       -0.0205
      8 C         138.3236  141.1660  158.7415 C.ar    1  UNL1       -0.0071
      9 C         137.8182  141.7263  157.4452 C.ar    1  UNL1       -0.0065
     10 C         138.3891  143.0050  156.9075 C.ar    1  UNL1       -0.0029
     11 C         139.4653  143.7234  157.6662 C.ar    1  UNL1        0.0006
     12 C         139.9707  143.1631  158.9625 C.ar    1  UNL1        0.0117
     13 C         142.9221  142.0199  165.6497 C.ar    1  UNL1        0.0710
     14 C         142.3922  143.0321  164.6778 C.ar    1  UNL1        0.0165
     15 C         142.5385  142.4683  163.2955 C.ar    1  UNL1        0.0233
     16 C         143.1589  141.1076  163.4131 C.ar    1  UNL1        0.0373
     17 S         143.3960  140.8305  164.8682 S.2     1  UNL1       -0.0780
     18 C         143.0175  142.3214  168.6329 C.1     1  UNL1       -0.0534
     19 C         142.9698  142.1707  167.1414 C.1     1  UNL1       -0.0554
     20 C         143.0651  142.4722  170.1246 C.3     1  UNL1        0.2182
     21 O         141.8585  142.9642  170.8677 O.3     1  UNL1       -0.3374
     22 C         140.6242  142.1149  170.9397 C.3     1  UNL1        0.1755
     23 C         140.7450  140.6276  171.0920 C.3     1  UNL1        0.1743
     24 C         139.7871  140.2104  168.7133 C.3     1  UNL1        0.1742
     25 O         140.0909  139.7160  170.0965 O.3     1  UNL1       -0.3484
     26 C         136.7420  141.0079  156.6864 C.3     1  UNL1        0.0992
     27 N         137.1081  139.9730  155.6642 N.3     1  UNL1       -0.2665
     28 C         136.0698  139.4606  154.7105 C.3     1  UNL1        0.0899
     29 C         136.4360  138.4256  153.6884 C.3     1  UNL1        0.0897
     30 N         137.8404  137.9030  153.6199 N.3     1  UNL1       -0.2691
     31 C         138.2065  136.8681  152.5978 C.3     1  UNL1        0.0897
     32 C         138.8786  138.4154  154.5736 C.3     1  UNL1        0.0897
     33 C         138.5124  139.4504  155.5958 C.3     1  UNL1        0.0899
@<TRIPOS>BOND
     1    24    25    1
     2    25    23    1
     3    23    22    1
     4    22    21    1
     5    21    20    1
     6    20    18    1
     7    18    19    3
     8    19    13    1
     9    13    14   ar
    10    14    15   ar
    11    15     1    1
    12     1     2    2
    13     2     3    1
    14     3     4    2
    15     4     5    1
    16     5     6    1
    17     6     7    1
    18     7     8   ar
    19     8     9   ar
    20     9    26    1
    21    26    27    1
    22    27    28    1
    23    28    29    1
    24    29    30    1
    25    30    31    1
    26    30    32    1
    27    32    33    1
    28     9    10   ar
    29    10    11   ar
    30    11    12   ar
    31    15    16   ar
    32    16    17   ar
    33    17    13   ar
    34     5     1    1
    35    12     7   ar
    36    12     4    1
    37    33    27    1
@<TRIPOS>MOLECULE
*****
 33 37 0 0 0
SMALL
GASTEIGER

@<TRIPOS>ATOM
      1 C         140.1898  140.4894  162.9496 C.2     1  UNL1        0.0866
      2 N         138.7951  140.8860  162.5655 N.2     1  UNL1       -0.1523
      3 N         138.5414  140.3962  161.1706 N.2     1  UNL1       -0.1523
      4 C         139.7794  139.6969  160.6926 C.2     1  UNL1        0.0858
      5 C         140.7981  139.7545  161.7921 C.3     1  UNL1        0.0883
      6 C         142.0360  139.0552  161.3141 C.3     1  UNL1        0.0384
      7 C         141.7824  138.5654  159.9192 C.ar    1  UNL1       -0.0205
      8 C         142.6412  137.8095  158.9491 C.ar    1  UNL1       -0.0071
      9 C         142.1054  137.4502  157.5950 C.ar    1  UNL1       -0.0065
     10 C         140.7107  137.8468  157.2109 C.ar    1  UNL1       -0.0029
     11 C         139.8518  138.6027  158.1809 C.ar    1  UNL1        0.0006
     12 C         140.3877  138.9620  159.5351 C.ar    1  UNL1        0.0117
     13 C         141.7945  140.5047  166.4837 C.ar    1  UNL1        0.0710
     14 C         141.1004  139.7888  165.3631 C.ar    1  UNL1        0.0165
     15 C         140.8588  140.7772  164.2610 C.ar    1  UNL1        0.0233
     16 C         141.4035  142.1039  164.7004 C.ar    1  UNL1        0.0373
     17 S         141.9819  141.9355  166.0742 S.2     1  UNL1       -0.0780
     18 C         142.6567  139.2884  169.0869 C.1     1  UNL1       -0.0534
     19 C         142.2256  139.8965  167.7854 C.1     1  UNL1       -0.0554
     20 C         143.0878  138.6801  170.3886 C.3     1  UNL1        0.2182
     21 O         143.2146  137.1908  170.5151 O.3     1  UNL1       -0.3374
     22 C         144.5638  136.5675  170.7174 C.3     1  UNL1        0.1755
     23 C         145.2329  136.6460  172.0576 C.3     1  UNL1        0.1743
     24 C         146.8603  135.6514  173.8218 C.3     1  UNL1        0.1742
     25 O         146.1960  135.5761  172.4791 O.3     1  UNL1       -0.3484
     26 C         142.9642  136.6942  156.6249 C.3     1  UNL1        0.0992
     27 N         142.7952  135.2118  156.4708 N.3     1  UNL1       -0.2665
     28 C         141.7950  134.6685  155.4938 C.3     1  UNL1        0.0899
     29 C         141.6260  133.1860  155.3397 C.3     1  UNL1        0.0897
     30 N         142.4573  132.2468  156.1626 N.3     1  UNL1       -0.2691
     31 C         142.2883  130.7644  156.0085 C.3     1  UNL1        0.0897
     32 C         143.4574  132.7902  157.1395 C.3     1  UNL1        0.0897
     33 C         143.6264  134.2726  157.2936 C.3     1  UNL1        0.0899
@<TRIPOS>BOND
     1    24    25    1
     2    25    23    1
     3    23    22    1
     4    22    21    1
     5    21    20    1
     6    20    18    1
     7    18    19    3
     8    19    13    1
     9    13    14   ar
    10    14    15   ar
    11    15     1    1
    12     1     2    2
    13     2     3    1
    14     3     4    2
    15     4     5    1
    16     5     6    1
    17     6     7    1
    18     7     8   ar
    19     8     9   ar
    20     9    26    1
    21    26    27    1
    22    27    28    1
    23    28    29    1
    24    29    30    1
    25    30    31    1
    26    30    32    1
    27    32    33    1
    28     9    10   ar
    29    10    11   ar
    30    11    12   ar
    31    15    16   ar
    32    16    17   ar
    33    17    13   ar
    34     5     1    1
    35    12     7   ar
    36    12     4    1
    37    33    27    1
