@<TRIPOS>MOLECULE
*****
 27 30 0 0 0
SMALL
GASTEIGER

@<TRIPOS>ATOM
      1 C         140.4785  142.6444  164.4162 C.ar    1  UNL1        0.0790
      2 C         140.5489  143.8140  163.4797 C.ar    1  UNL1        0.0365
      3 C         139.8144  143.4475  162.2243 C.ar    1  UNL1        0.0962
      4 N         139.2901  142.0513  162.3848 N.ar    1  UNL1       -0.1723
      5 N         139.7006  141.5550  163.7395 N.ar    1  UNL1       -0.2531
      6 C         142.2843  142.4397  168.5329 C.ar    1  UNL1       -0.0225
      7 C         143.1370  142.1814  167.3262 C.ar    1  UNL1       -0.0042
      8 C         142.5351  142.2496  165.9540 C.ar    1  UNL1        0.0012
      9 C         141.0805  142.5761  165.7884 C.ar    1  UNL1        0.0173
     10 C         140.2278  142.8344  166.9951 C.ar    1  UNL1        0.0012
     11 C         140.8297  142.7662  168.3674 C.ar    1  UNL1       -0.0042
     12 C         142.0205  142.0576  171.0891 C.3     1  UNL1        0.0047
     13 C         142.8863  142.3714  169.9051 C.3     1  UNL1        0.0224
     14 C         144.3540  142.6170  170.0934 C.3     1  UNL1        0.0047
     15 C         139.3879  140.2060  164.3162 C.3     1  UNL1        0.1052
     16 C         138.4078  140.0817  165.4450 C.3     1  UNL1        0.0244
     17 C         138.0952  138.7328  166.0217 C.3     1  UNL1        0.0020
     18 C         138.7626  137.5081  165.4697 C.3     1  UNL1        0.0001
     19 C         139.7427  137.6324  164.3410 C.3     1  UNL1        0.0020
     20 C         140.0553  138.9814  163.7643 C.3     1  UNL1        0.0244
     21 C         139.6356  144.3234  161.0197 C.3     1  UNL1        0.1206
     22 N         140.7215  144.4116  159.9887 N.3     1  UNL1       -0.2633
     23 C         141.8410  143.4132  159.9913 C.3     1  UNL1        0.1049
     24 C         142.9269  143.5014  158.9603 C.3     1  UNL1        0.1595
     25 O         142.8933  144.5879  157.9267 O.3     1  UNL1       -0.3508
     26 C         141.7739  145.5862  157.9241 C.3     1  UNL1        0.1595
     27 C         140.6879  145.4981  158.9552 C.3     1  UNL1        0.1049
@<TRIPOS>BOND
     1    12    13    1
     2    13    14    1
     3    13     6    1
     4     6     7   ar
     5     7     8   ar
     6     8     9   ar
     7     9     1    1
     8     1     2   ar
     9     2     3   ar
    10     3    21    1
    11    21    22    1
    12    22    23    1
    13    23    24    1
    14    24    25    1
    15    25    26    1
    16    26    27    1
    17     3     4   ar
    18     4     5   ar
    19     5    15    1
    20    15    16    1
    21    16    17    1
    22    17    18    1
    23    18    19    1
    24    19    20    1
    25     9    10   ar
    26    10    11   ar
    27    11     6   ar
    28     5     1   ar
    29    20    15    1
    30    27    22    1
@<TRIPOS>MOLECULE
*****
 27 30 0 0 0
SMALL
GASTEIGER

@<TRIPOS>ATOM
      1 C         141.9354  138.6444  160.9407 C.ar    1  UNL1        0.0790
      2 C         141.5245  138.0734  159.6159 C.ar    1  UNL1        0.0365
      3 C         142.6184  138.3572  158.6295 C.ar    1  UNL1        0.0962
      4 N         143.7054  139.1035  159.3448 N.ar    1  UNL1       -0.1723
      5 N         143.2832  139.2810  160.7732 N.ar    1  UNL1       -0.2531
      6 C         139.5443  138.4767  164.7492 C.ar    1  UNL1       -0.0225
      7 C         139.5096  139.7095  163.8955 C.ar    1  UNL1       -0.0042
      8 C         140.3066  139.7654  162.6260 C.ar    1  UNL1        0.0012
      9 C         141.1384  138.5885  162.2102 C.ar    1  UNL1        0.0173
     10 C         141.1731  137.3556  163.0639 C.ar    1  UNL1        0.0012
     11 C         140.3761  137.2998  164.3334 C.ar    1  UNL1       -0.0042
     12 C         137.8791  137.2323  166.3075 C.3     1  UNL1        0.0047
     13 C         138.7473  138.4208  166.0187 C.3     1  UNL1        0.0224
     14 C         138.8185  139.5535  166.9995 C.3     1  UNL1        0.0047
     15 C         144.0707  139.9735  161.8457 C.3     1  UNL1        0.1052
     16 C         144.5443  141.3816  161.6377 C.3     1  UNL1        0.0244
     17 C         145.3317  142.0742  162.7102 C.3     1  UNL1        0.0020
     18 C         145.6456  141.3587  163.9907 C.3     1  UNL1        0.0001
     19 C         145.1720  139.9508  164.1987 C.3     1  UNL1        0.0020
     20 C         144.3845  139.2582  163.1261 C.3     1  UNL1        0.0244
     21 C         142.6243  137.9637  157.1821 C.3     1  UNL1        0.1206
     22 N         142.4688  136.5226  156.7960 N.3     1  UNL1       -0.2633
     23 C         141.4930  136.1342  155.7251 C.3     1  UNL1        0.1049
     24 C         141.3374  134.6931  155.3390 C.3     1  UNL1        0.1595
     25 O         142.1578  133.6405  156.0239 O.3     1  UNL1       -0.3508
     26 C         143.1336  134.0288  157.0947 C.3     1  UNL1        0.1595
     27 C         143.2891  135.4700  157.4809 C.3     1  UNL1        0.1049
@<TRIPOS>BOND
     1    12    13    1
     2    13    14    1
     3    13     6    1
     4     6     7   ar
     5     7     8   ar
     6     8     9   ar
     7     9     1    1
     8     1     2   ar
     9     2     3   ar
    10     3    21    1
    11    21    22    1
    12    22    23    1
    13    23    24    1
    14    24    25    1
    15    25    26    1
    16    26    27    1
    17     3     4   ar
    18     4     5   ar
    19     5    15    1
    20    15    16    1
    21    16    17    1
    22    17    18    1
    23    18    19    1
    24    19    20    1
    25     9    10   ar
    26    10    11   ar
    27    11     6   ar
    28     5     1   ar
    29    20    15    1
    30    27    22    1
@<TRIPOS>MOLECULE
*****
 27 30 0 0 0
SMALL
GASTEIGER

@<TRIPOS>ATOM
      1 C         142.2055  142.0974  163.9299 C.ar    1  UNL1        0.0790
      2 C         142.8734  143.0592  162.9925 C.ar    1  UNL1        0.0365
      3 C         142.8343  142.4668  161.6150 C.ar    1  UNL1        0.0962
      4 N         142.1423  141.1388  161.7010 N.ar    1  UNL1       -0.1723
      5 N         141.7537  140.9105  163.1317 N.ar    1  UNL1       -0.2531
      6 C         141.6542  142.6716  168.3589 C.ar    1  UNL1       -0.0225
      7 C         142.9967  142.2828  167.8144 C.ar    1  UNL1       -0.0042
      8 C         143.1805  142.0914  166.3381 C.ar    1  UNL1        0.0012
      9 C         142.0218  142.2888  165.4062 C.ar    1  UNL1        0.0173
     10 C         140.6793  142.6776  165.9507 C.ar    1  UNL1        0.0012
     11 C         140.4955  142.8690  167.4271 C.ar    1  UNL1       -0.0042
     12 C         140.0936  142.8337  170.4297 C.3     1  UNL1        0.0047
     13 C         141.4705  142.8630  169.8353 C.3     1  UNL1        0.0224
     14 C         142.6636  143.0837  170.7172 C.3     1  UNL1        0.0047
     15 C         141.0387  139.7066  163.6697 C.3     1  UNL1        0.1052
     16 C         141.8012  138.4465  163.9544 C.3     1  UNL1        0.0244
     17 C         141.0862  137.2426  164.4924 C.3     1  UNL1        0.0020
     18 C         139.6088  137.2987  164.7458 C.3     1  UNL1        0.0001
     19 C         138.8464  138.5587  164.4612 C.3     1  UNL1        0.0020
     20 C         139.5614  139.7626  163.9231 C.3     1  UNL1        0.0244
     21 C         143.3897  143.0926  160.3700 C.3     1  UNL1        0.1206
     22 N         142.5135  143.9515  159.5072 N.3     1  UNL1       -0.2633
     23 C         142.8065  144.0888  158.0425 C.3     1  UNL1        0.1049
     24 C         141.9302  144.9477  157.1797 C.3     1  UNL1        0.1595
     25 O         140.7611  145.6694  157.7816 O.3     1  UNL1       -0.3508
     26 C         140.4681  145.5321  159.2462 C.3     1  UNL1        0.1595
     27 C         141.3444  144.6732  160.1091 C.3     1  UNL1        0.1049
@<TRIPOS>BOND
     1    12    13    1
     2    13    14    1
     3    13     6    1
     4     6     7   ar
     5     7     8   ar
     6     8     9   ar
     7     9     1    1
     8     1     2   ar
     9     2     3   ar
    10     3    21    1
    11    21    22    1
    12    22    23    1
    13    23    24    1
    14    24    25    1
    15    25    26    1
    16    26    27    1
    17     3     4   ar
    18     4     5   ar
    19     5    15    1
    20    15    16    1
    21    16    17    1
    22    17    18    1
    23    18    19    1
    24    19    20    1
    25     9    10   ar
    26    10    11   ar
    27    11     6   ar
    28     5     1   ar
    29    20    15    1
    30    27    22    1
@<TRIPOS>MOLECULE
*****
 27 30 0 0 0
SMALL
GASTEIGER

@<TRIPOS>ATOM
      1 C         142.7444  142.0790  163.9151 C.ar    1  UNL1        0.0790
      2 C         143.9078  141.8721  162.9912 C.ar    1  UNL1        0.0365
      3 C         143.5593  142.4779  161.6640 C.ar    1  UNL1        0.0962
      4 N         142.1804  143.0593  161.7676 N.ar    1  UNL1       -0.1723
      5 N         141.6768  142.8127  163.1588 N.ar    1  UNL1       -0.2531
      6 C         142.4998  140.7346  168.2026 C.ar    1  UNL1       -0.0225
      7 C         143.0728  142.0804  167.8701 C.ar    1  UNL1       -0.0042
      8 C         143.1543  142.5285  166.4409 C.ar    1  UNL1        0.0012
      9 C         142.6628  141.6309  165.3442 C.ar    1  UNL1        0.0173
     10 C         142.0898  140.2851  165.6768 C.ar    1  UNL1        0.0012
     11 C         142.0083  139.8370  167.1059 C.ar    1  UNL1       -0.0042
     12 C         142.6006  138.8378  169.9751 C.3     1  UNL1        0.0047
     13 C         142.4182  140.2865  169.6318 C.3     1  UNL1        0.0224
     14 C         142.1543  141.2871  170.7176 C.3     1  UNL1        0.0047
     15 C         140.3402  143.2271  163.6990 C.3     1  UNL1        0.1052
     16 C         139.1077  142.4605  163.3203 C.3     1  UNL1        0.0244
     17 C         137.7711  142.8749  163.8605 C.3     1  UNL1        0.0020
     18 C         137.6669  144.0559  164.7793 C.3     1  UNL1        0.0001
     19 C         138.8993  144.8225  165.1580 C.3     1  UNL1        0.0020
     20 C         140.2359  144.4081  164.6178 C.3     1  UNL1        0.0244
     21 C         144.4357  142.4988  160.4468 C.3     1  UNL1        0.1206
     22 N         144.2323  141.4866  159.3587 N.3     1  UNL1       -0.2633
     23 C         143.4512  140.2359  159.6343 C.3     1  UNL1        0.1049
     24 C         143.2477  139.2237  158.5462 C.3     1  UNL1        0.1595
     25 O         143.8253  139.4621  157.1825 O.3     1  UNL1       -0.3508
     26 C         144.6064  140.7126  156.9069 C.3     1  UNL1        0.1595
     27 C         144.8099  141.7250  157.9951 C.3     1  UNL1        0.1049
@<TRIPOS>BOND
     1    12    13    1
     2    13    14    1
     3    13     6    1
     4     6     7   ar
     5     7     8   ar
     6     8     9   ar
     7     9     1    1
     8     1     2   ar
     9     2     3   ar
    10     3    21    1
    11    21    22    1
    12    22    23    1
    13    23    24    1
    14    24    25    1
    15    25    26    1
    16    26    27    1
    17     3     4   ar
    18     4     5   ar
    19     5    15    1
    20    15    16    1
    21    16    17    1
    22    17    18    1
    23    18    19    1
    24    19    20    1
    25     9    10   ar
    26    10    11   ar
    27    11     6   ar
    28     5     1   ar
    29    20    15    1
    30    27    22    1
@<TRIPOS>MOLECULE
*****
 27 30 0 0 0
SMALL
GASTEIGER

@<TRIPOS>ATOM
      1 C         142.8436  139.6102  164.4322 C.ar    1  UNL1        0.0790
      2 C         143.9013  139.4814  163.3765 C.ar    1  UNL1        0.0365
      3 C         143.3440  138.6473  162.2612 C.ar    1  UNL1        0.0962
      4 N         141.9418  138.2606  162.6278 N.ar    1  UNL1       -0.1723
      5 N         141.6326  138.8557  163.9695 N.ar    1  UNL1       -0.2531
      6 C         143.2349  141.8643  168.3073 C.ar    1  UNL1       -0.0225
      7 C         143.4747  142.5664  167.0037 C.ar    1  UNL1       -0.0042
      8 C         143.3443  141.8150  165.7120 C.ar    1  UNL1        0.0012
      9 C         142.9740  140.3616  165.7239 C.ar    1  UNL1        0.0173
     10 C         142.7341  139.6594  167.0275 C.ar    1  UNL1        0.0012
     11 C         142.8645  140.4108  168.3192 C.ar    1  UNL1       -0.0042
     12 C         144.7242  142.9070  170.1632 C.3     1  UNL1        0.0047
     13 C         143.3653  142.6157  169.5989 C.3     1  UNL1        0.0224
     14 C         142.1368  143.0758  170.3263 C.3     1  UNL1        0.0047
     15 C         140.3393  138.7200  164.7173 C.3     1  UNL1        0.1052
     16 C         139.5960  139.9460  165.1587 C.3     1  UNL1        0.0244
     17 C         138.3028  139.8103  165.9064 C.3     1  UNL1        0.0020
     18 C         137.7528  138.4489  166.2128 C.3     1  UNL1        0.0001
     19 C         138.4960  137.2230  165.7713 C.3     1  UNL1        0.0020
     20 C         139.7893  137.3586  165.0236 C.3     1  UNL1        0.0244
     21 C         144.0626  138.2667  161.0008 C.3     1  UNL1        0.1206
     22 N         143.5258  138.7039  159.6702 N.3     1  UNL1       -0.2633
     23 C         142.7077  137.7566  158.8435 C.3     1  UNL1        0.1049
     24 C         142.1709  138.1938  157.5129 C.3     1  UNL1        0.1595
     25 O         142.4520  139.5783  157.0089 O.3     1  UNL1       -0.3508
     26 C         143.2700  140.5257  157.8355 C.3     1  UNL1        0.1595
     27 C         143.8069  140.0885  159.1663 C.3     1  UNL1        0.1049
@<TRIPOS>BOND
     1    12    13    1
     2    13    14    1
     3    13     6    1
     4     6     7   ar
     5     7     8   ar
     6     8     9   ar
     7     9     1    1
     8     1     2   ar
     9     2     3   ar
    10     3    21    1
    11    21    22    1
    12    22    23    1
    13    23    24    1
    14    24    25    1
    15    25    26    1
    16    26    27    1
    17     3     4   ar
    18     4     5   ar
    19     5    15    1
    20    15    16    1
    21    16    17    1
    22    17    18    1
    23    18    19    1
    24    19    20    1
    25     9    10   ar
    26    10    11   ar
    27    11     6   ar
    28     5     1   ar
    29    20    15    1
    30    27    22    1
@<TRIPOS>MOLECULE
*****
 27 30 0 0 0
SMALL
GASTEIGER

@<TRIPOS>ATOM
      1 C         140.3921  140.2636  163.9901 C.ar    1  UNL1        0.0790
      2 C         139.2079  139.6691  163.2872 C.ar    1  UNL1        0.0365
      3 C         139.6408  139.2671  161.9085 C.ar    1  UNL1        0.0962
      4 N         141.0927  139.6131  161.7593 N.ar    1  UNL1       -0.1723
      5 N         141.5570  140.2289  163.0458 N.ar    1  UNL1       -0.2531
      6 C         140.4416  141.8690  168.1937 C.ar    1  UNL1       -0.0225
      7 C         140.4396  142.8149  167.0296 C.ar    1  UNL1       -0.0042
      8 C         140.4231  142.2797  165.6284 C.ar    1  UNL1        0.0012
      9 C         140.4086  140.7987  165.3913 C.ar    1  UNL1        0.0173
     10 C         140.4106  139.8528  166.5554 C.ar    1  UNL1        0.0012
     11 C         140.4271  140.3879  167.9566 C.ar    1  UNL1       -0.0042
     12 C         140.4775  141.4581  170.7589 C.3     1  UNL1        0.0047
     13 C         140.4581  142.4041  169.5949 C.3     1  UNL1        0.0224
     14 C         140.4551  143.8852  169.8322 C.3     1  UNL1        0.0047
     15 C         142.9430  140.7233  163.3368 C.3     1  UNL1        0.1052
     16 C         143.9851  139.7748  163.8511 C.3     1  UNL1        0.0244
     17 C         145.3711  140.2692  164.1421 C.3     1  UNL1        0.0020
     18 C         145.7150  141.7121  163.9190 C.3     1  UNL1        0.0001
     19 C         144.6729  142.6606  163.4048 C.3     1  UNL1        0.0020
     20 C         143.2869  142.1662  163.1137 C.3     1  UNL1        0.0244
     21 C         138.7741  138.6308  160.8626 C.3     1  UNL1        0.1206
     22 N         138.7724  139.1675  159.4619 N.3     1  UNL1       -0.2633
     23 C         139.6373  138.5317  158.4141 C.3     1  UNL1        0.1049
     24 C         139.6356  139.0684  157.0134 C.3     1  UNL1        0.1595
     25 O         138.7690  140.2408  156.6605 O.3     1  UNL1       -0.3508
     26 C         137.9041  140.8765  157.7082 C.3     1  UNL1        0.1595
     27 C         137.9058  140.3398  159.1090 C.3     1  UNL1        0.1049
@<TRIPOS>BOND
     1    12    13    1
     2    13    14    1
     3    13     6    1
     4     6     7   ar
     5     7     8   ar
     6     8     9   ar
     7     9     1    1
     8     1     2   ar
     9     2     3   ar
    10     3    21    1
    11    21    22    1
    12    22    23    1
    13    23    24    1
    14    24    25    1
    15    25    26    1
    16    26    27    1
    17     3     4   ar
    18     4     5   ar
    19     5    15    1
    20    15    16    1
    21    16    17    1
    22    17    18    1
    23    18    19    1
    24    19    20    1
    25     9    10   ar
    26    10    11   ar
    27    11     6   ar
    28     5     1   ar
    29    20    15    1
    30    27    22    1
@<TRIPOS>MOLECULE
*****
 27 30 0 0 0
SMALL
GASTEIGER

@<TRIPOS>ATOM
      1 C         140.2923  140.3698  163.9771 C.ar    1  UNL1        0.0790
      2 C         139.0774  139.8416  163.2734 C.ar    1  UNL1        0.0365
      3 C         139.4822  139.4437  161.8850 C.ar    1  UNL1        0.0962
      4 N         140.9473  139.7260  161.7305 N.ar    1  UNL1       -0.1723
      5 N         141.4479  140.2984  163.0234 N.ar    1  UNL1       -0.2531
      6 C         140.4433  141.9001  168.2062 C.ar    1  UNL1       -0.0225
      7 C         140.2773  140.4324  167.9451 C.ar    1  UNL1       -0.0042
      8 C         140.2269  139.9223  166.5354 C.ar    1  UNL1        0.0012
      9 C         140.3426  140.8799  165.3868 C.ar    1  UNL1        0.0173
     10 C         140.5087  142.3476  165.6478 C.ar    1  UNL1        0.0012
     11 C         140.5590  142.8577  167.0575 C.ar    1  UNL1       -0.0042
     12 C         140.4268  143.8847  169.8828 C.3     1  UNL1        0.0047
     13 C         140.4937  142.4102  169.6159 C.3     1  UNL1        0.0224
     14 C         140.6110  141.4458  170.7587 C.3     1  UNL1        0.0047
     15 C         142.8569  140.7245  163.3121 C.3     1  UNL1        0.1052
     16 C         143.8353  139.7419  163.8842 C.3     1  UNL1        0.0244
     17 C         145.2443  140.1680  164.1729 C.3     1  UNL1        0.0020
     18 C         145.6748  141.5767  163.8895 C.3     1  UNL1        0.0001
     19 C         144.6964  142.5592  163.3174 C.3     1  UNL1        0.0020
     20 C         143.2874  142.1331  163.0288 C.3     1  UNL1        0.0244
     21 C         138.5803  138.8651  160.8353 C.3     1  UNL1        0.1206
     22 N         138.7353  139.2793  159.4020 N.3     1  UNL1       -0.2633
     23 C         137.9412  140.4329  158.8646 C.3     1  UNL1        0.1049
     24 C         138.0962  140.8471  157.4313 C.3     1  UNL1        0.1595
     25 O         139.0454  140.1079  156.5355 O.3     1  UNL1       -0.3508
     26 C         139.8395  138.9544  157.0727 C.3     1  UNL1        0.1595
     27 C         139.6845  138.5401  158.5061 C.3     1  UNL1        0.1049
@<TRIPOS>BOND
     1    12    13    1
     2    13    14    1
     3    13     6    1
     4     6     7   ar
     5     7     8   ar
     6     8     9   ar
     7     9     1    1
     8     1     2   ar
     9     2     3   ar
    10     3    21    1
    11    21    22    1
    12    22    23    1
    13    23    24    1
    14    24    25    1
    15    25    26    1
    16    26    27    1
    17     3     4   ar
    18     4     5   ar
    19     5    15    1
    20    15    16    1
    21    16    17    1
    22    17    18    1
    23    18    19    1
    24    19    20    1
    25     9    10   ar
    26    10    11   ar
    27    11     6   ar
    28     5     1   ar
    29    20    15    1
    30    27    22    1
@<TRIPOS>MOLECULE
*****
 27 30 0 0 0
SMALL
GASTEIGER

@<TRIPOS>ATOM
      1 C         142.4261  139.7674  164.0784 C.ar    1  UNL1        0.0790
      2 C         142.3605  138.5271  163.2374 C.ar    1  UNL1        0.0365
      3 C         142.9910  138.8326  161.9110 C.ar    1  UNL1        0.0962
      4 N         143.4463  140.2616  161.9323 N.ar    1  UNL1       -0.1723
      5 N         143.0972  140.8394  163.2719 N.ar    1  UNL1       -0.2531
      6 C         140.8811  140.1969  168.2830 C.ar    1  UNL1       -0.0225
      7 C         142.2570  139.6505  168.0417 C.ar    1  UNL1       -0.0042
      8 C         142.7720  139.5074  166.6402 C.ar    1  UNL1        0.0012
      9 C         141.9111  139.9106  165.4800 C.ar    1  UNL1        0.0173
     10 C         140.5352  140.4570  165.7213 C.ar    1  UNL1        0.0012
     11 C         140.0202  140.6002  167.1228 C.ar    1  UNL1       -0.0042
     12 C         138.8915  140.2777  169.9517 C.3     1  UNL1        0.0047
     13 C         140.3661  140.3401  169.6845 C.3     1  UNL1        0.0224
     14 C         141.3258  140.5457  170.8189 C.3     1  UNL1        0.0047
     15 C         143.3711  142.2428  163.7252 C.3     1  UNL1        0.1052
     16 C         142.6888  143.3956  163.0502 C.3     1  UNL1        0.0244
     17 C         142.9627  144.7990  163.5035 C.3     1  UNL1        0.0020
     18 C         143.9188  145.0496  164.6318 C.3     1  UNL1        0.0001
     19 C         144.6010  143.8968  165.3068 C.3     1  UNL1        0.0020
     20 C         144.3271  142.4934  164.8535 C.3     1  UNL1        0.0244
     21 C         143.1400  137.8767  160.7646 C.3     1  UNL1        0.1206
     22 N         142.2121  137.9647  159.5894 N.3     1  UNL1       -0.2633
     23 C         140.8361  138.5366  159.7613 C.3     1  UNL1        0.1049
     24 C         139.9082  138.6245  158.5861 C.3     1  UNL1        0.1595
     25 O         140.3563  138.1406  157.2389 O.3     1  UNL1       -0.3508
     26 C         141.7322  137.5687  157.0669 C.3     1  UNL1        0.1595
     27 C         142.6602  137.4807  158.2422 C.3     1  UNL1        0.1049
@<TRIPOS>BOND
     1    12    13    1
     2    13    14    1
     3    13     6    1
     4     6     7   ar
     5     7     8   ar
     6     8     9   ar
     7     9     1    1
     8     1     2   ar
     9     2     3   ar
    10     3    21    1
    11    21    22    1
    12    22    23    1
    13    23    24    1
    14    24    25    1
    15    25    26    1
    16    26    27    1
    17     3     4   ar
    18     4     5   ar
    19     5    15    1
    20    15    16    1
    21    16    17    1
    22    17    18    1
    23    18    19    1
    24    19    20    1
    25     9    10   ar
    26    10    11   ar
    27    11     6   ar
    28     5     1   ar
    29    20    15    1
    30    27    22    1
@<TRIPOS>MOLECULE
*****
 27 30 0 0 0
SMALL
GASTEIGER

@<TRIPOS>ATOM
      1 C         140.0643  141.7392  163.9007 C.ar    1  UNL1        0.0790
      2 C         138.9363  142.2211  163.0374 C.ar    1  UNL1        0.0365
      3 C         139.3734  142.1226  161.6058 C.ar    1  UNL1        0.0962
      4 N         140.7716  141.5799  161.5844 N.ar    1  UNL1       -0.1723
      5 N         141.1985  141.3429  163.0027 N.ar    1  UNL1       -0.2531
      6 C         140.0483  141.5208  168.3954 C.ar    1  UNL1       -0.0225
      7 C         139.6455  140.3246  167.5849 C.ar    1  UNL1       -0.0042
      8 C         139.6509  140.3974  166.0867 C.ar    1  UNL1        0.0012
      9 C         140.0589  141.6664  165.3989 C.ar    1  UNL1        0.0173
     10 C         140.4617  142.8626  166.2094 C.ar    1  UNL1        0.0012
     11 C         140.4563  142.7898  167.7076 C.ar    1  UNL1       -0.0042
     12 C         140.1607  140.1197  170.5804 C.3     1  UNL1        0.0047
     13 C         140.0429  141.4480  169.8936 C.3     1  UNL1        0.0224
     14 C         139.9197  142.7035  170.7051 C.3     1  UNL1        0.0047
     15 C         142.5267  140.8042  163.4454 C.3     1  UNL1        0.1052
     16 C         143.7671  141.6290  163.2690 C.3     1  UNL1        0.0244
     17 C         145.0952  141.0903  163.7116 C.3     1  UNL1        0.0020
     18 C         145.1830  139.7268  164.3305 C.3     1  UNL1        0.0001
     19 C         143.9426  138.9020  164.5069 C.3     1  UNL1        0.0020
     20 C         142.6145  139.4407  164.0643 C.3     1  UNL1        0.0244
     21 C         138.5559  142.5006  160.4064 C.3     1  UNL1        0.1206
     22 N         139.1489  143.3714  159.3387 N.3     1  UNL1       -0.2633
     23 C         140.0166  144.5353  159.7162 C.3     1  UNL1        0.1049
     24 C         140.6096  145.4061  158.6485 C.3     1  UNL1        0.1595
     25 O         140.3351  145.1129  157.2033 O.3     1  UNL1       -0.3508
     26 C         139.4675  143.9491  156.8257 C.3     1  UNL1        0.1595
     27 C         138.8744  143.0782  157.8934 C.3     1  UNL1        0.1049
@<TRIPOS>BOND
     1    12    13    1
     2    13    14    1
     3    13     6    1
     4     6     7   ar
     5     7     8   ar
     6     8     9   ar
     7     9     1    1
     8     1     2   ar
     9     2     3   ar
    10     3    21    1
    11    21    22    1
    12    22    23    1
    13    23    24    1
    14    24    25    1
    15    25    26    1
    16    26    27    1
    17     3     4   ar
    18     4     5   ar
    19     5    15    1
    20    15    16    1
    21    16    17    1
    22    17    18    1
    23    18    19    1
    24    19    20    1
    25     9    10   ar
    26    10    11   ar
    27    11     6   ar
    28     5     1   ar
    29    20    15    1
    30    27    22    1
