@<TRIPOS>MOLECULE
*****
 31 34 0 0 0
SMALL
GASTEIGER

@<TRIPOS>ATOM
      1 C         141.0644  138.6973  162.6675 C.2     1  UNL1        0.0079
      2 C         139.7278  139.1269  163.1957 C.2     1  UNL1        0.0937
      3 C         139.5364  139.3402  164.6681 C.2     1  UNL1        0.3691
      4 N         140.4840  140.2206  165.4277 N.2     1  UNL1       -0.0400
      5 C         140.2926  140.4340  166.9002 C.2     1  UNL1        0.1832
      6 C         141.2401  141.3144  167.6598 C.3     1  UNL1        0.1189
      7 C         141.0488  141.5277  169.1321 C.2     1  UNL1        0.0917
      8 C         139.9099  140.8606  169.8448 C.2     1  UNL1        0.0147
      9 C         138.9624  139.9802  169.0852 C.2     1  UNL1        0.0114
     10 C         139.1538  139.7669  167.6129 C.2     1  UNL1        0.1210
     11 C         138.2062  138.8864  166.8532 C.2     1  UNL1        0.3788
     12 O         137.0674  138.2193  167.5659 O.2     1  UNL1       -0.2376
     13 N         138.3976  138.6731  165.3808 N.am    1  UNL1        0.0364
     14 S         141.9963  142.4081  169.8918 S.O2    1  UNL1        0.0072
     15 C         142.9439  143.2885  170.6514 C.3     1  UNL1        0.1812
     16 O         140.9862  142.5460  170.9921 O.2     1  UNL1       -0.1689
     17 O         143.0065  142.2703  168.7916 O.2     1  UNL1       -0.1689
     18 C         140.3137  138.5279  158.7743 C.ar    1  UNL1        0.1547
     19 C         140.1224  138.7412  160.2466 C.ar    1  UNL1        0.0384
     20 C         141.2556  138.4840  161.1952 C.ar    1  UNL1        0.0034
     21 C         142.5801  138.0134  160.6713 C.ar    1  UNL1        0.0017
     22 C         142.7713  137.8001  159.1989 C.ar    1  UNL1        0.0206
     23 C         141.6381  138.0573  158.2504 C.ar    1  UNL1        0.0994
     24 N         141.8294  137.8440  156.7781 N.ar    1  UNL1       -0.2839
     25 C         142.2399  138.8877  155.7819 C.ar    1  UNL1        0.1826
     26 N         142.3079  138.2382  154.4314 N.ar    1  UNL1       -0.2280
     27 C         141.9395  136.7931  154.5930 C.ar    1  UNL1        0.0786
     28 C         141.8777  135.7711  153.4969 C.3     1  UNL1        0.0538
     29 C         141.6438  136.5495  156.0432 C.ar    1  UNL1        0.0963
     30 C         138.9917  140.1512  157.2358 C.3     1  UNL1        0.2525
     31 O         139.1805  138.7851  157.8258 O.3     1  UNL1       -0.4700
@<TRIPOS>BOND
     1    30    31    1
     2    31    18    1
     3    18    19   ar
     4    19    20   ar
     5    20     1    1
     6     1     2    2
     7     2     3    1
     8     3     4    1
     9     4     5    2
    10     5     6    1
    11     6     7    1
    12     7    14    1
    13    14    15    1
    14    14    16    2
    15    14    17    2
    16     7     8    2
    17     8     9    1
    18     9    10    2
    19    10    11    1
    20    11    12    2
    21    11    13    1
    22    20    21   ar
    23    21    22   ar
    24    22    23   ar
    25    23    24    1
    26    24    25   ar
    27    25    26   ar
    28    26    27   ar
    29    27    28    1
    30    27    29   ar
    31    23    18   ar
    32    29    24   ar
    33    13     3    2
    34    10     5    1
@<TRIPOS>MOLECULE
*****
 31 34 0 0 0
SMALL
GASTEIGER

@<TRIPOS>ATOM
      1 C         142.1413  138.3627  161.9524 C.2     1  UNL1        0.0079
      2 C         141.3920  139.2756  162.8771 C.2     1  UNL1        0.0937
      3 C         141.7508  139.3281  164.3327 C.2     1  UNL1        0.3691
      4 N         141.0093  140.2496  165.2552 N.2     1  UNL1       -0.0400
      5 C         141.3681  140.3021  166.7107 C.2     1  UNL1        0.1832
      6 C         140.6266  141.2235  167.6332 C.3     1  UNL1        0.1189
      7 C         140.9854  141.2760  169.0887 C.2     1  UNL1        0.0917
      8 C         142.0857  140.4070  169.6217 C.2     1  UNL1        0.0147
      9 C         142.8273  139.4855  168.6992 C.2     1  UNL1        0.0114
     10 C         142.4684  139.4331  167.2437 C.2     1  UNL1        0.1210
     11 C         143.2100  138.5116  166.3212 C.2     1  UNL1        0.3788
     12 O         144.3103  137.6426  166.8541 O.2     1  UNL1       -0.2376
     13 N         142.8512  138.4591  164.8657 N.am    1  UNL1        0.0364
     14 S         140.2438  142.1975  170.0113 S.O2    1  UNL1        0.0072
     15 C         139.5023  143.1189  170.9338 C.3     1  UNL1        0.1812
     16 O         140.2036  141.1206  171.0546 O.2     1  UNL1       -0.1689
     17 O         140.2841  143.2744  168.9679 O.2     1  UNL1       -0.1689
     18 C         142.4054  137.7143  158.0461 C.ar    1  UNL1        0.1547
     19 C         142.7642  137.7667  159.5015 C.ar    1  UNL1        0.0384
     20 C         141.7824  138.3103  160.4970 C.ar    1  UNL1        0.0034
     21 C         140.4419  138.8013  160.0368 C.ar    1  UNL1        0.0017
     22 C         140.0831  138.7488  158.5813 C.ar    1  UNL1        0.0206
     23 C         141.0648  138.2053  157.5859 C.ar    1  UNL1        0.0994
     24 N         140.7060  138.1529  156.1305 N.ar    1  UNL1       -0.2839
     25 C         141.2896  139.0105  155.0470 C.ar    1  UNL1        0.1826
     26 N         140.6448  138.6212  153.7497 N.ar    1  UNL1       -0.2280
     27 C         139.6626  137.5230  154.0315 C.ar    1  UNL1        0.0786
     28 C         138.7951  136.8351  153.0197 C.3     1  UNL1        0.0538
     29 C         139.7004  137.2335  155.5028 C.ar    1  UNL1        0.0963
     30 C         143.2779  135.7474  156.5900 C.3     1  UNL1        0.2525
     31 O         143.3871  137.1707  157.0508 O.3     1  UNL1       -0.4700
@<TRIPOS>BOND
     1    30    31    1
     2    31    18    1
     3    18    19   ar
     4    19    20   ar
     5    20     1    1
     6     1     2    2
     7     2     3    1
     8     3     4    1
     9     4     5    2
    10     5     6    1
    11     6     7    1
    12     7    14    1
    13    14    15    1
    14    14    16    2
    15    14    17    2
    16     7     8    2
    17     8     9    1
    18     9    10    2
    19    10    11    1
    20    11    12    2
    21    11    13    1
    22    20    21   ar
    23    21    22   ar
    24    22    23   ar
    25    23    24    1
    26    24    25   ar
    27    25    26   ar
    28    26    27   ar
    29    27    28    1
    30    27    29   ar
    31    23    18   ar
    32    29    24   ar
    33    13     3    2
    34    10     5    1
@<TRIPOS>MOLECULE
*****
 31 34 0 0 0
SMALL
GASTEIGER

@<TRIPOS>ATOM
      1 C         143.2410  140.6839  162.2644 C.2     1  UNL1        0.0079
      2 C         144.2714  140.4525  163.3296 C.2     1  UNL1        0.0937
      3 C         143.8441  140.0724  164.7164 C.2     1  UNL1        0.3691
      4 N         142.9970  141.0107  165.5238 N.2     1  UNL1       -0.0400
      5 C         142.5698  140.6306  166.9106 C.2     1  UNL1        0.1832
      6 C         141.7226  141.5689  167.7180 C.3     1  UNL1        0.1189
      7 C         141.2954  141.1888  169.1047 C.2     1  UNL1        0.0917
      8 C         141.7154  139.8704  169.6840 C.2     1  UNL1        0.0147
      9 C         142.5625  138.9322  168.8766 C.2     1  UNL1        0.0114
     10 C         142.9897  139.3122  167.4899 C.2     1  UNL1        0.1210
     11 C         143.8369  138.3739  166.6824 C.2     1  UNL1        0.3788
     12 O         144.2568  137.0556  167.2617 O.2     1  UNL1       -0.2376
     13 N         144.2641  138.7540  165.2957 N.am    1  UNL1        0.0364
     14 S         140.4483  142.1271  169.9122 S.O2    1  UNL1        0.0072
     15 C         139.6011  143.0653  170.7197 C.3     1  UNL1        0.1812
     16 O         140.5355  143.1484  168.8171 O.2     1  UNL1       -0.1689
     17 O         140.3611  141.1058  171.0073 O.2     1  UNL1       -0.1689
     18 C         144.0628  140.4252  158.3904 C.ar    1  UNL1        0.1547
     19 C         143.6356  140.0452  159.7771 C.ar    1  UNL1        0.0384
     20 C         143.6683  141.0639  160.8777 C.ar    1  UNL1        0.0034
     21 C         144.1283  142.4627  160.5915 C.ar    1  UNL1        0.0017
     22 C         144.5556  142.8427  159.2047 C.ar    1  UNL1        0.0206
     23 C         144.5228  141.8240  158.1042 C.ar    1  UNL1        0.0994
     24 N         144.9501  142.2040  156.7175 N.ar    1  UNL1       -0.2839
     25 C         144.0402  142.5914  155.5896 C.ar    1  UNL1        0.1826
     26 N         144.8901  142.8902  154.3902 N.ar    1  UNL1       -0.2280
     27 C         146.3252  142.6875  154.7768 C.ar    1  UNL1        0.0786
     28 C         147.5144  142.8758  153.8823 C.3     1  UNL1        0.0538
     29 C         146.3623  142.2634  156.2152 C.ar    1  UNL1        0.0963
     30 C         142.7283  139.0523  156.6343 C.3     1  UNL1        0.2525
     31 O         144.0301  139.4065  157.2899 O.3     1  UNL1       -0.4700
@<TRIPOS>BOND
     1    30    31    1
     2    31    18    1
     3    18    19   ar
     4    19    20   ar
     5    20     1    1
     6     1     2    2
     7     2     3    1
     8     3     4    1
     9     4     5    2
    10     5     6    1
    11     6     7    1
    12     7    14    1
    13    14    15    1
    14    14    16    2
    15    14    17    2
    16     7     8    2
    17     8     9    1
    18     9    10    2
    19    10    11    1
    20    11    12    2
    21    11    13    1
    22    20    21   ar
    23    21    22   ar
    24    22    23   ar
    25    23    24    1
    26    24    25   ar
    27    25    26   ar
    28    26    27   ar
    29    27    28    1
    30    27    29   ar
    31    23    18   ar
    32    29    24   ar
    33    13     3    2
    34    10     5    1
@<TRIPOS>MOLECULE
*****
 31 34 0 0 0
SMALL
GASTEIGER

@<TRIPOS>ATOM
      1 C         139.4024  142.5028  160.6894 C.2     1  UNL1        0.0079
      2 C         139.9616  142.9173  162.0180 C.2     1  UNL1        0.0937
      3 C         139.7637  142.0431  163.2208 C.2     1  UNL1        0.3691
      4 N         140.0923  142.5637  164.5886 N.2     1  UNL1       -0.0400
      5 C         139.8944  141.6895  165.7915 C.2     1  UNL1        0.1832
      6 C         140.2230  142.2101  167.1592 C.3     1  UNL1        0.1189
      7 C         140.0251  141.3359  168.3620 C.2     1  UNL1        0.0917
      8 C         139.4985  139.9411  168.1969 C.2     1  UNL1        0.0147
      9 C         139.1699  139.4205  166.8291 C.2     1  UNL1        0.0114
     10 C         139.3678  140.2947  165.6264 C.2     1  UNL1        0.1210
     11 C         139.0392  139.7741  164.2585 C.2     1  UNL1        0.3788
     12 O         138.5127  138.3793  164.0934 O.2     1  UNL1       -0.2376
     13 N         139.2371  140.6483  163.0558 N.am    1  UNL1        0.0364
     14 S         140.3537  141.8565  169.7299 S.O2    1  UNL1        0.0072
     15 C         140.6824  142.3771  171.0977 C.3     1  UNL1        0.1812
     16 O         139.0655  141.2941  170.2534 O.2     1  UNL1       -0.1689
     17 O         141.6419  142.4189  169.2063 O.2     1  UNL1       -0.1689
     18 C         139.1637  143.8820  156.9758 C.ar    1  UNL1        0.1547
     19 C         138.9657  143.0078  158.1785 C.ar    1  UNL1        0.0384
     20 C         139.6003  143.3770  159.4867 C.ar    1  UNL1        0.0034
     21 C         140.4328  144.6203  159.5920 C.ar    1  UNL1        0.0017
     22 C         140.6307  145.4945  158.3892 C.ar    1  UNL1        0.0206
     23 C         139.9961  145.1254  157.0812 C.ar    1  UNL1        0.0994
     24 N         140.1941  145.9996  155.8785 N.ar    1  UNL1       -0.2839
     25 C         141.0461  145.6792  154.6862 C.ar    1  UNL1        0.1826
     26 N         140.9534  146.8294  153.7277 N.ar    1  UNL1       -0.2280
     27 C         140.0439  147.8605  154.3275 C.ar    1  UNL1        0.0786
     28 C         139.6695  149.1738  153.7071 C.3     1  UNL1        0.0538
     29 C         139.5747  147.3477  155.6567 C.ar    1  UNL1        0.0963
     30 C         137.2139  144.1178  155.2750 C.3     1  UNL1        0.2525
     31 O         138.5291  143.5129  155.6678 O.3     1  UNL1       -0.4700
@<TRIPOS>BOND
     1    30    31    1
     2    31    18    1
     3    18    19   ar
     4    19    20   ar
     5    20     1    1
     6     1     2    2
     7     2     3    1
     8     3     4    1
     9     4     5    2
    10     5     6    1
    11     6     7    1
    12     7    14    1
    13    14    15    1
    14    14    16    2
    15    14    17    2
    16     7     8    2
    17     8     9    1
    18     9    10    2
    19    10    11    1
    20    11    12    2
    21    11    13    1
    22    20    21   ar
    23    21    22   ar
    24    22    23   ar
    25    23    24    1
    26    24    25   ar
    27    25    26   ar
    28    26    27   ar
    29    27    28    1
    30    27    29   ar
    31    23    18   ar
    32    29    24   ar
    33    13     3    2
    34    10     5    1
@<TRIPOS>MOLECULE
*****
 31 34 0 0 0
SMALL
GASTEIGER

@<TRIPOS>ATOM
      1 C         141.5801  137.8975  161.7645 C.2     1  UNL1        0.0079
      2 C         142.3064  138.4974  160.5972 C.2     1  UNL1        0.0937
      3 C         142.0545  137.9813  159.2114 C.2     1  UNL1        0.3691
      4 N         140.7841  138.3375  158.4979 N.2     1  UNL1       -0.0400
      5 C         140.5322  137.8214  157.1121 C.2     1  UNL1        0.1832
      6 C         139.2618  138.1775  156.3985 C.3     1  UNL1        0.1189
      7 C         139.0100  137.6615  155.0128 C.2     1  UNL1        0.0917
      8 C         140.0285  136.7893  154.3407 C.2     1  UNL1        0.0147
      9 C         141.2989  136.4331  155.0543 C.2     1  UNL1        0.0114
     10 C         141.5508  136.9492  156.4399 C.2     1  UNL1        0.1210
     11 C         142.8212  136.5930  157.1536 C.2     1  UNL1        0.3788
     12 O         143.8398  135.7208  156.4814 O.2     1  UNL1       -0.2376
     13 N         143.0730  137.1091  158.5393 N.am    1  UNL1        0.0364
     14 S         137.7395  138.0176  154.2992 S.O2    1  UNL1        0.0072
     15 C         136.4691  138.3738  153.5857 C.3     1  UNL1        0.1812
     16 O         138.0527  137.0062  153.2367 O.2     1  UNL1       -0.1689
     17 O         137.4263  139.0290  155.3617 O.2     1  UNL1       -0.1689
     18 C         140.9332  139.1682  165.4681 C.ar    1  UNL1        0.1547
     19 C         140.6813  138.6521  164.0824 C.ar    1  UNL1        0.0384
     20 C         141.8320  138.4136  163.1501 C.ar    1  UNL1        0.0034
     21 C         143.2346  138.6911  163.6037 C.ar    1  UNL1        0.0017
     22 C         143.4865  139.2072  164.9894 C.ar    1  UNL1        0.0206
     23 C         142.3358  139.4457  165.9216 C.ar    1  UNL1        0.0994
     24 N         142.5877  139.9618  167.3073 N.ar    1  UNL1       -0.2839
     25 C         142.7263  139.1286  168.5468 C.ar    1  UNL1        0.1826
     26 N         142.9695  140.0536  169.7024 N.ar    1  UNL1       -0.2280
     27 C         142.9812  141.4586  169.1770 C.ar    1  UNL1        0.0786
     28 C         143.1919  142.7018  169.9892 C.3     1  UNL1        0.0538
     29 C         142.7452  141.4018  167.6968 C.ar    1  UNL1        0.0963
     30 C         138.4492  138.7782  166.1221 C.3     1  UNL1        0.2525
     31 O         139.7825  139.4067  166.4002 O.3     1  UNL1       -0.4700
@<TRIPOS>BOND
     1    30    31    1
     2    31    18    1
     3    18    19   ar
     4    19    20   ar
     5    20     1    1
     6     1     2    2
     7     2     3    1
     8     3     4    1
     9     4     5    2
    10     5     6    1
    11     6     7    1
    12     7    14    1
    13    14    15    1
    14    14    16    2
    15    14    17    2
    16     7     8    2
    17     8     9    1
    18     9    10    2
    19    10    11    1
    20    11    12    2
    21    11    13    1
    22    20    21   ar
    23    21    22   ar
    24    22    23   ar
    25    23    24    1
    26    24    25   ar
    27    25    26   ar
    28    26    27   ar
    29    27    28    1
    30    27    29   ar
    31    23    18   ar
    32    29    24   ar
    33    13     3    2
    34    10     5    1
@<TRIPOS>MOLECULE
*****
 31 34 0 0 0
SMALL
GASTEIGER

@<TRIPOS>ATOM
      1 C         142.5307  137.6656  160.8403 C.2     1  UNL1        0.0079
      2 C         142.5182  138.4690  159.5737 C.2     1  UNL1        0.0937
      3 C         142.4397  137.7750  158.2461 C.2     1  UNL1        0.3691
      4 N         142.9123  136.3578  158.1115 N.2     1  UNL1       -0.0400
      5 C         142.8338  135.6639  156.7840 C.2     1  UNL1        0.1832
      6 C         143.3063  134.2467  156.6494 C.3     1  UNL1        0.1189
      7 C         143.2278  133.5528  155.3219 C.2     1  UNL1        0.0917
      8 C         142.6768  134.2762  154.1289 C.2     1  UNL1        0.0147
      9 C         142.2042  135.6934  154.2635 C.2     1  UNL1        0.0114
     10 C         142.2827  136.3872  155.5910 C.2     1  UNL1        0.1210
     11 C         141.8102  137.8045  155.7257 C.2     1  UNL1        0.3788
     12 O         141.2591  138.5279  154.5327 O.2     1  UNL1       -0.2376
     13 N         141.8887  138.4984  157.0532 N.am    1  UNL1        0.0364
     14 S         143.7004  132.1355  155.1872 S.O2    1  UNL1        0.0072
     15 C         144.1730  130.7183  155.0526 C.3     1  UNL1        0.1812
     16 O         142.8347  131.9620  153.9746 O.2     1  UNL1       -0.1689
     17 O         144.5661  132.3090  156.3998 O.2     1  UNL1       -0.1689
     18 C         143.9793  139.6705  163.9439 C.ar    1  UNL1        0.1547
     19 C         143.9008  138.9765  162.6164 C.ar    1  UNL1        0.0384
     20 C         142.6092  138.3595  162.1678 C.ar    1  UNL1        0.0034
     21 C         141.3962  138.4365  163.0468 C.ar    1  UNL1        0.0017
     22 C         141.4747  139.1305  164.3743 C.ar    1  UNL1        0.0206
     23 C         142.7662  139.7474  164.8228 C.ar    1  UNL1        0.0994
     24 N         142.8447  140.4414  166.1503 N.ar    1  UNL1       -0.2839
     25 C         143.0530  141.9111  166.3660 C.ar    1  UNL1        0.1826
     26 N         143.0657  142.1655  167.8442 N.ar    1  UNL1       -0.2280
     27 C         142.8653  140.8530  168.5422 C.ar    1  UNL1        0.0786
     28 C         142.8110  140.6429  170.0263 C.3     1  UNL1        0.0538
     29 C         142.7287  139.7874  167.4953 C.ar    1  UNL1        0.0963
     30 C         145.7645  141.5476  163.7458 C.3     1  UNL1        0.2525
     31 O         145.2709  140.2874  164.3924 O.3     1  UNL1       -0.4700
@<TRIPOS>BOND
     1    30    31    1
     2    31    18    1
     3    18    19   ar
     4    19    20   ar
     5    20     1    1
     6     1     2    2
     7     2     3    1
     8     3     4    1
     9     4     5    2
    10     5     6    1
    11     6     7    1
    12     7    14    1
    13    14    15    1
    14    14    16    2
    15    14    17    2
    16     7     8    2
    17     8     9    1
    18     9    10    2
    19    10    11    1
    20    11    12    2
    21    11    13    1
    22    20    21   ar
    23    21    22   ar
    24    22    23   ar
    25    23    24    1
    26    24    25   ar
    27    25    26   ar
    28    26    27   ar
    29    27    28    1
    30    27    29   ar
    31    23    18   ar
    32    29    24   ar
    33    13     3    2
    34    10     5    1
@<TRIPOS>MOLECULE
*****
 31 34 0 0 0
SMALL
GASTEIGER

@<TRIPOS>ATOM
      1 C         139.0108  141.6825  162.7086 C.2     1  UNL1        0.0079
      2 C         138.7643  140.3688  163.3893 C.2     1  UNL1        0.0937
      3 C         138.9186  140.2544  164.8770 C.2     1  UNL1        0.3691
      4 N         139.9257  141.1037  165.5941 N.2     1  UNL1       -0.0400
      5 C         140.0800  140.9892  167.0818 C.2     1  UNL1        0.1832
      6 C         141.0871  141.8385  167.7989 C.3     1  UNL1        0.1189
      7 C         141.2414  141.7240  169.2865 C.2     1  UNL1        0.0917
      8 C         140.3885  140.7602  170.0570 C.2     1  UNL1        0.0147
      9 C         139.3813  139.9109  169.3399 C.2     1  UNL1        0.0114
     10 C         139.2271  140.0254  167.8523 C.2     1  UNL1        0.1210
     11 C         138.2199  139.1761  167.1351 C.2     1  UNL1        0.3788
     12 O         137.3670  138.2123  167.9056 O.2     1  UNL1       -0.2376
     13 N         138.0657  139.2906  165.6475 N.am    1  UNL1        0.0364
     14 S         142.2486  142.5733  170.0038 S.O2    1  UNL1        0.0072
     15 C         143.2557  143.4226  170.7210 C.3     1  UNL1        0.1812
     16 O         143.0675  142.6610  168.7501 O.2     1  UNL1       -0.1689
     17 O         141.4297  142.4857  171.2574 O.2     1  UNL1       -0.1689
     18 C         139.2359  143.1148  159.0143 C.ar    1  UNL1        0.1547
     19 C         139.3902  143.0004  160.5019 C.ar    1  UNL1        0.0384
     20 C         138.8565  141.7969  161.2210 C.ar    1  UNL1        0.0034
     21 C         138.1685  140.7080  160.4523 C.ar    1  UNL1        0.0017
     22 C         138.0142  140.8224  158.9646 C.ar    1  UNL1        0.0206
     23 C         138.5479  142.0258  158.2456 C.ar    1  UNL1        0.0994
     24 N         138.3937  142.1402  156.7580 N.ar    1  UNL1       -0.2839
     25 C         139.3480  141.6103  155.7293 C.ar    1  UNL1        0.1826
     26 N         138.8021  141.9472  154.3733 N.ar    1  UNL1       -0.2280
     27 C         137.5103  142.6854  154.5641 C.ar    1  UNL1        0.0786
     28 C         136.6262  143.2118  153.4727 C.3     1  UNL1        0.0538
     29 C         137.2578  142.8047  156.0379 C.ar    1  UNL1        0.0963
     30 C         140.3803  145.4465  159.0724 C.3     1  UNL1        0.2525
     31 O         139.7696  144.3182  158.2953 O.3     1  UNL1       -0.4700
@<TRIPOS>BOND
     1    30    31    1
     2    31    18    1
     3    18    19   ar
     4    19    20   ar
     5    20     1    1
     6     1     2    2
     7     2     3    1
     8     3     4    1
     9     4     5    2
    10     5     6    1
    11     6     7    1
    12     7    14    1
    13    14    15    1
    14    14    16    2
    15    14    17    2
    16     7     8    2
    17     8     9    1
    18     9    10    2
    19    10    11    1
    20    11    12    2
    21    11    13    1
    22    20    21   ar
    23    21    22   ar
    24    22    23   ar
    25    23    24    1
    26    24    25   ar
    27    25    26   ar
    28    26    27   ar
    29    27    28    1
    30    27    29   ar
    31    23    18   ar
    32    29    24   ar
    33    13     3    2
    34    10     5    1
@<TRIPOS>MOLECULE
*****
 31 34 0 0 0
SMALL
GASTEIGER

@<TRIPOS>ATOM
      1 C         142.1688  138.8879  158.7422 C.2     1  UNL1        0.0079
      2 C         142.8413  138.6290  160.0577 C.2     1  UNL1        0.0937
      3 C         143.0233  139.7479  161.0401 C.2     1  UNL1        0.3691
      4 N         141.8256  140.4546  161.6022 N.2     1  UNL1       -0.0400
      5 C         142.0075  141.5735  162.5846 C.2     1  UNL1        0.1832
      6 C         140.8098  142.2803  163.1467 C.3     1  UNL1        0.1189
      7 C         140.9918  143.3991  164.1290 C.2     1  UNL1        0.0917
      8 C         142.3714  143.8112  164.5492 C.2     1  UNL1        0.0147
      9 C         143.5692  143.1045  163.9872 C.2     1  UNL1        0.0114
     10 C         143.3872  141.9857  163.0048 C.2     1  UNL1        0.1210
     11 C         144.5849  141.2789  162.4427 C.2     1  UNL1        0.3788
     12 O         145.9646  141.6910  162.8629 O.2     1  UNL1       -0.2376
     13 N         144.4030  140.1600  161.4604 N.am    1  UNL1        0.0364
     14 S         139.7940  144.1059  164.6911 S.O2    1  UNL1        0.0072
     15 C         138.5963  144.8126  165.2533 C.3     1  UNL1        0.1812
     16 O         139.8207  145.0670  163.5398 O.2     1  UNL1       -0.1689
     17 O         139.7673  143.1448  165.8424 O.2     1  UNL1       -0.1689
     18 C         142.8431  135.5730  156.6670 C.ar    1  UNL1        0.1547
     19 C         143.0250  136.6918  157.6493 C.ar    1  UNL1        0.0384
     20 C         141.9869  137.7690  157.7599 C.ar    1  UNL1        0.0034
     21 C         140.7670  137.7273  156.8881 C.ar    1  UNL1        0.0017
     22 C         140.5851  136.6083  155.9058 C.ar    1  UNL1        0.0206
     23 C         141.6232  135.5312  155.7952 C.ar    1  UNL1        0.0994
     24 N         141.4413  134.4123  154.8129 N.ar    1  UNL1       -0.2839
     25 C         141.5076  134.5310  153.3191 C.ar    1  UNL1        0.1826
     26 N         141.2684  133.1702  152.7349 N.ar    1  UNL1       -0.2280
     27 C         141.0542  132.2106  153.8677 C.ar    1  UNL1        0.0786
     28 C         140.7811  130.7413  153.7388 C.3     1  UNL1        0.0538
     29 C         141.1610  132.9782  155.1520 C.ar    1  UNL1        0.0963
     30 C         144.0628  133.5118  157.6739 C.3     1  UNL1        0.2525
     31 O         143.8811  134.4958  156.5565 O.3     1  UNL1       -0.4700
@<TRIPOS>BOND
     1    30    31    1
     2    31    18    1
     3    18    19   ar
     4    19    20   ar
     5    20     1    1
     6     1     2    2
     7     2     3    1
     8     3     4    1
     9     4     5    2
    10     5     6    1
    11     6     7    1
    12     7    14    1
    13    14    15    1
    14    14    16    2
    15    14    17    2
    16     7     8    2
    17     8     9    1
    18     9    10    2
    19    10    11    1
    20    11    12    2
    21    11    13    1
    22    20    21   ar
    23    21    22   ar
    24    22    23   ar
    25    23    24    1
    26    24    25   ar
    27    25    26   ar
    28    26    27   ar
    29    27    28    1
    30    27    29   ar
    31    23    18   ar
    32    29    24   ar
    33    13     3    2
    34    10     5    1
@<TRIPOS>MOLECULE
*****
 31 34 0 0 0
SMALL
GASTEIGER

@<TRIPOS>ATOM
      1 C         141.0537  139.6256  159.8769 C.2     1  UNL1        0.0079
      2 C         141.0046  139.1159  161.2868 C.2     1  UNL1        0.0937
      3 C         140.8925  140.0809  162.4298 C.2     1  UNL1        0.3691
      4 N         140.7886  139.5692  163.8359 N.2     1  UNL1       -0.0400
      5 C         140.6765  140.5342  164.9789 C.2     1  UNL1        0.1832
      6 C         140.5725  140.0225  166.3850 C.3     1  UNL1        0.1189
      7 C         140.4604  140.9875  167.5279 C.2     1  UNL1        0.0917
      8 C         140.4524  142.4642  167.2646 C.2     1  UNL1        0.0147
      9 C         140.5564  142.9759  165.8584 C.2     1  UNL1        0.0114
     10 C         140.6684  142.0109  164.7156 C.2     1  UNL1        0.1210
     11 C         140.7724  142.5226  163.3093 C.2     1  UNL1        0.3788
     12 O         140.7643  143.9993  163.0460 O.2     1  UNL1       -0.2376
     13 N         140.8845  141.5576  162.1665 N.am    1  UNL1        0.0364
     14 S         140.3565  140.4758  168.9341 S.O2    1  UNL1        0.0072
     15 C         140.2525  139.9642  170.3403 C.3     1  UNL1        0.1812
     16 O         139.1384  139.6860  168.5567 O.2     1  UNL1       -0.1689
     17 O         141.5745  141.2656  169.3115 O.2     1  UNL1       -0.1689
     18 C         140.0565  137.3170  156.8068 C.ar    1  UNL1        0.1547
     19 C         139.9445  138.2820  157.9497 C.ar    1  UNL1        0.0384
     20 C         141.1657  138.6606  158.7341 C.ar    1  UNL1        0.0034
     21 C         142.4990  138.0743  158.3756 C.ar    1  UNL1        0.0017
     22 C         142.6110  137.1092  157.2326 C.ar    1  UNL1        0.0206
     23 C         141.3898  136.7306  156.4483 C.ar    1  UNL1        0.0994
     24 N         141.5019  135.7656  155.3054 N.ar    1  UNL1       -0.2839
     25 C         141.6503  136.1274  153.8573 C.ar    1  UNL1        0.1826
     26 N         141.7253  134.8547  153.0668 N.ar    1  UNL1       -0.2280
     27 C         141.6233  133.7063  154.0265 C.ar    1  UNL1        0.0786
     28 C         141.6540  132.2507  153.6660 C.3     1  UNL1        0.0538
     29 C         141.4852  134.2693  155.4100 C.ar    1  UNL1        0.0963
     30 C         138.4204  137.7595  154.8377 C.3     1  UNL1        0.2525
     31 O         138.8353  136.9384  156.0224 O.3     1  UNL1       -0.4700
@<TRIPOS>BOND
     1    30    31    1
     2    31    18    1
     3    18    19   ar
     4    19    20   ar
     5    20     1    1
     6     1     2    2
     7     2     3    1
     8     3     4    1
     9     4     5    2
    10     5     6    1
    11     6     7    1
    12     7    14    1
    13    14    15    1
    14    14    16    2
    15    14    17    2
    16     7     8    2
    17     8     9    1
    18     9    10    2
    19    10    11    1
    20    11    12    2
    21    11    13    1
    22    20    21   ar
    23    21    22   ar
    24    22    23   ar
    25    23    24    1
    26    24    25   ar
    27    25    26   ar
    28    26    27   ar
    29    27    28    1
    30    27    29   ar
    31    23    18   ar
    32    29    24   ar
    33    13     3    2
    34    10     5    1
