@<TRIPOS>MOLECULE
*****
 29 32 0 0 0
SMALL
GASTEIGER

@<TRIPOS>ATOM
      1 C         141.3776  142.6520  169.7223 C.ar    1  UNL1        0.1389
      2 C         141.9122  142.4922  168.3299 C.ar    1  UNL1        0.0367
      3 C         141.2852  141.5008  167.3950 C.ar    1  UNL1        0.0024
      4 C         140.1236  140.6693  167.8525 C.ar    1  UNL1        0.0201
      5 C         139.5890  140.8292  169.2449 C.ar    1  UNL1        0.0779
      6 C         140.2160  141.8205  170.1797 C.ar    1  UNL1        0.0431
      7 C         138.4416  139.8776  169.4130 C.2     1  UNL1        0.3412
      8 O         137.6142  139.7044  170.6520 O.2     1  UNL1       -0.2449
      9 O         138.2671  139.1297  168.1245 O.3     1  UNL1       -0.4485
     10 C         139.3066  139.6189  167.1600 C.3     1  UNL1        0.1550
     11 C         140.3949  140.2043  166.3098 C.3     1  UNL1        0.0449
     12 C         140.5841  139.7271  164.9004 C.3     1  UNL1        0.0130
     13 C         139.6852  138.6644  164.3413 C.3     1  UNL1        0.0770
     14 C         138.5970  138.0790  165.1916 C.3     1  UNL1        0.0130
     15 C         138.4077  138.5563  166.6009 C.3     1  UNL1        0.0449
     16 C         139.8745  138.1871  162.9319 C.2     1  UNL1        0.2252
     17 O         140.6979  136.9634  162.6587 O.2     1  UNL1       -0.2749
     18 N         139.2405  138.9335  161.7958 N.am    1  UNL1       -0.2764
     19 C         139.4298  138.4563  160.3863 C.3     1  UNL1        0.1149
     20 C         138.4171  140.1572  162.0690 C.3     1  UNL1        0.1107
     21 C         139.0054  141.5203  161.8543 C.3     1  UNL1        0.0939
     22 N         139.0377  142.5093  162.9817 N.3     1  UNL1       -0.2712
     23 C         140.3525  142.9968  163.5143 C.3     1  UNL1        0.0721
     24 C         140.3848  143.9858  164.6416 C.3     1  UNL1        0.0174
     25 C         139.1022  144.4872  165.2364 C.3     1  UNL1        0.0029
     26 C         137.7875  143.9996  164.7038 C.3     1  UNL1        0.0174
     27 C         137.7552  143.0107  163.5764 C.3     1  UNL1        0.0721
     28 C         143.4868  143.6242  170.8867 C.3     1  UNL1        0.2525
     29 O         142.0046  143.6434  170.6571 O.3     1  UNL1       -0.4714
@<TRIPOS>BOND
     1    28    29    1
     2    29     1    1
     3     1     2   ar
     4     2     3   ar
     5     3     4   ar
     6     4     5   ar
     7     5     6   ar
     8     5     7    1
     9     7     8    2
    10     7     9    1
    11     9    10    1
    12    10    11    1
    13    11    12    1
    14    12    13    1
    15    13    16    1
    16    16    17    2
    17    16    18   am
    18    18    19    1
    19    18    20    1
    20    20    21    1
    21    21    22    1
    22    22    23    1
    23    23    24    1
    24    24    25    1
    25    25    26    1
    26    26    27    1
    27    13    14    1
    28    14    15    1
    29     6     1   ar
    30    15    10    1
    31    10     4    1
    32    27    22    1
@<TRIPOS>MOLECULE
*****
 29 32 0 0 0
SMALL
GASTEIGER

@<TRIPOS>ATOM
      1 C         143.3425  142.2592  169.3392 C.ar    1  UNL1        0.1389
      2 C         143.1946  142.4197  167.8551 C.ar    1  UNL1        0.0367
      3 C         142.0378  141.7831  167.1434 C.ar    1  UNL1        0.0024
      4 C         141.0289  140.9859  167.9158 C.ar    1  UNL1        0.0201
      5 C         141.1768  140.8254  169.3999 C.ar    1  UNL1        0.0779
      6 C         142.3336  141.4620  170.1115 C.ar    1  UNL1        0.0431
      7 C         140.0332  139.9885  169.8919 C.2     1  UNL1        0.3412
      8 O         139.7875  139.5800  171.3140 O.2     1  UNL1       -0.2449
      9 O         139.1786  139.6318  168.7119 O.3     1  UNL1       -0.4485
     10 C         139.7939  140.2482  167.4906 C.3     1  UNL1        0.1550
     11 C         140.5207  140.9214  166.3643 C.3     1  UNL1        0.0449
     12 C         139.9936  140.8183  164.9638 C.3     1  UNL1        0.0130
     13 C         138.7398  140.0420  164.6895 C.3     1  UNL1        0.0770
     14 C         138.0131  139.3688  165.8158 C.3     1  UNL1        0.0130
     15 C         138.5401  139.4719  167.2163 C.3     1  UNL1        0.0449
     16 C         138.2128  139.9388  163.2889 C.2     1  UNL1        0.2252
     17 O         137.3414  141.0262  162.7335 O.2     1  UNL1       -0.2749
     18 N         138.5571  138.7484  162.4438 N.am    1  UNL1       -0.2764
     19 C         138.0300  138.6453  161.0431 C.3     1  UNL1        0.1149
     20 C         139.4284  137.6611  162.9991 C.3     1  UNL1        0.1107
     21 C         140.8631  137.5586  162.5731 C.3     1  UNL1        0.0939
     22 N         141.9501  138.0738  163.4692 N.3     1  UNL1       -0.2712
     23 C         141.9051  137.7914  164.9417 C.3     1  UNL1        0.0721
     24 C         142.9921  138.3066  165.8377 C.3     1  UNL1        0.0174
     25 C         144.1242  139.1043  165.2612 C.3     1  UNL1        0.0029
     26 C         144.1692  139.3866  163.7888 C.3     1  UNL1        0.0174
     27 C         143.0822  138.8714  162.8927 C.3     1  UNL1        0.0721
     28 C         144.2556  143.9826  171.0555 C.3     1  UNL1        0.2525
     29 O         144.4993  142.8958  170.0508 O.3     1  UNL1       -0.4714
@<TRIPOS>BOND
     1    28    29    1
     2    29     1    1
     3     1     2   ar
     4     2     3   ar
     5     3     4   ar
     6     4     5   ar
     7     5     6   ar
     8     5     7    1
     9     7     8    2
    10     7     9    1
    11     9    10    1
    12    10    11    1
    13    11    12    1
    14    12    13    1
    15    13    16    1
    16    16    17    2
    17    16    18   am
    18    18    19    1
    19    18    20    1
    20    20    21    1
    21    21    22    1
    22    22    23    1
    23    23    24    1
    24    24    25    1
    25    25    26    1
    26    26    27    1
    27    13    14    1
    28    14    15    1
    29     6     1   ar
    30    15    10    1
    31    10     4    1
    32    27    22    1
@<TRIPOS>MOLECULE
*****
 29 32 0 0 0
SMALL
GASTEIGER

@<TRIPOS>ATOM
      1 C         140.2748  141.2186  168.6054 C.ar    1  UNL1        0.1389
      2 C         141.2198  141.4261  167.4591 C.ar    1  UNL1        0.0367
      3 C         141.0485  140.6388  166.1938 C.ar    1  UNL1        0.0024
      4 C         139.9322  139.6441  166.0748 C.ar    1  UNL1        0.0201
      5 C         138.9871  139.4365  167.2211 C.ar    1  UNL1        0.0779
      6 C         139.1584  140.2237  168.4863 C.ar    1  UNL1        0.0431
      7 C         137.9880  138.3938  166.8152 C.2     1  UNL1        0.3412
      8 O         136.8596  137.8785  167.6583 O.2     1  UNL1       -0.2449
      9 O         138.3156  137.9570  165.4181 O.3     1  UNL1       -0.4485
     10 C         139.5172  138.7297  164.9605 C.3     1  UNL1        0.1550
     11 C         140.7169  139.5723  164.6435 C.3     1  UNL1        0.0449
     12 C         141.3859  139.4518  163.3064 C.3     1  UNL1        0.0130
     13 C         140.8552  138.4885  162.2863 C.3     1  UNL1        0.0770
     14 C         139.6555  137.6459  162.6033 C.3     1  UNL1        0.0130
     15 C         138.9865  137.7664  163.9404 C.3     1  UNL1        0.0449
     16 C         141.5243  138.3680  160.9492 C.2     1  UNL1        0.2252
     17 O         142.8306  137.6409  160.8270 O.2     1  UNL1       -0.2749
     18 N         140.8871  138.9746  159.7343 N.am    1  UNL1       -0.2764
     19 C         141.5562  138.8540  158.3971 C.3     1  UNL1        0.1149
     20 C         139.5808  139.7017  159.8564 C.3     1  UNL1        0.1107
     21 C         139.5616  141.1470  160.2576 C.3     1  UNL1        0.0939
     22 N         139.0637  141.5416  161.6164 N.3     1  UNL1       -0.2712
     23 C         137.8298  140.9000  162.1785 C.3     1  UNL1        0.0721
     24 C         137.3319  141.2946  163.5373 C.3     1  UNL1        0.0174
     25 C         138.0679  142.3309  164.3340 C.3     1  UNL1        0.0029
     26 C         139.3017  142.9724  163.7718 C.3     1  UNL1        0.0174
     27 C         139.7996  142.5778  162.4130 C.3     1  UNL1        0.0721
     28 C         140.5390  143.5019  169.8162 C.3     1  UNL1        0.2525
     29 O         140.4461  142.0058  169.8705 O.3     1  UNL1       -0.4714
@<TRIPOS>BOND
     1    28    29    1
     2    29     1    1
     3     1     2   ar
     4     2     3   ar
     5     3     4   ar
     6     4     5   ar
     7     5     6   ar
     8     5     7    1
     9     7     8    2
    10     7     9    1
    11     9    10    1
    12    10    11    1
    13    11    12    1
    14    12    13    1
    15    13    16    1
    16    16    17    2
    17    16    18   am
    18    18    19    1
    19    18    20    1
    20    20    21    1
    21    21    22    1
    22    22    23    1
    23    23    24    1
    24    24    25    1
    25    25    26    1
    26    26    27    1
    27    13    14    1
    28    14    15    1
    29     6     1   ar
    30    15    10    1
    31    10     4    1
    32    27    22    1
@<TRIPOS>MOLECULE
*****
 29 32 0 0 0
SMALL
GASTEIGER

@<TRIPOS>ATOM
      1 C         140.9918  140.9668  169.1210 C.ar    1  UNL1        0.1389
      2 C         141.4324  142.1688  168.3393 C.ar    1  UNL1        0.0367
      3 C         140.8604  142.4286  166.9771 C.ar    1  UNL1        0.0024
      4 C         139.8479  141.4863  166.3967 C.ar    1  UNL1        0.0201
      5 C         139.4073  140.2842  167.1784 C.ar    1  UNL1        0.0779
      6 C         139.9793  140.0245  168.5405 C.ar    1  UNL1        0.0431
      7 C         138.4011  139.5380  166.3532 C.2     1  UNL1        0.3412
      8 O         137.6995  138.2731  166.7501 O.2     1  UNL1       -0.2449
      9 O         138.2199  140.2788  165.0616 O.3     1  UNL1       -0.4485
     10 C         139.1140  141.4830  165.0884 C.3     1  UNL1        0.1550
     11 C         140.0535  142.6399  165.2580 C.3     1  UNL1        0.0449
     12 C         140.1898  143.6613  164.1680 C.3     1  UNL1        0.0130
     13 C         139.3866  143.5258  162.9085 C.3     1  UNL1        0.0770
     14 C         138.4471  142.3688  162.7389 C.3     1  UNL1        0.0130
     15 C         138.3108  141.3475  163.8289 C.3     1  UNL1        0.0449
     16 C         139.5230  144.5473  161.8184 C.2     1  UNL1        0.2252
     17 O         138.6866  145.7921  161.8483 O.2     1  UNL1       -0.2749
     18 N         140.4956  144.3239  160.6986 N.am    1  UNL1       -0.2764
     19 C         140.6319  145.3453  159.6086 C.3     1  UNL1        0.1149
     20 C         141.3319  143.0790  160.6687 C.3     1  UNL1        0.1107
     21 C         142.7941  143.1497  160.9962 C.3     1  UNL1        0.0939
     22 N         143.2404  143.2024  162.4273 N.3     1  UNL1       -0.2712
     23 C         143.3425  141.9381  163.2281 C.3     1  UNL1        0.0721
     24 C         143.7888  141.9908  164.6592 C.3     1  UNL1        0.0174
     25 C         144.1331  143.3078  165.2895 C.3     1  UNL1        0.0029
     26 C         144.0309  144.5720  164.4887 C.3     1  UNL1        0.0174
     27 C         143.5846  144.5193  163.0576 C.3     1  UNL1        0.0721
     28 C         142.8613  139.9677  170.6231 C.3     1  UNL1        0.2525
     29 O         141.5637  140.7070  170.4830 O.3     1  UNL1       -0.4714
@<TRIPOS>BOND
     1    28    29    1
     2    29     1    1
     3     1     2   ar
     4     2     3   ar
     5     3     4   ar
     6     4     5   ar
     7     5     6   ar
     8     5     7    1
     9     7     8    2
    10     7     9    1
    11     9    10    1
    12    10    11    1
    13    11    12    1
    14    12    13    1
    15    13    16    1
    16    16    17    2
    17    16    18   am
    18    18    19    1
    19    18    20    1
    20    20    21    1
    21    21    22    1
    22    22    23    1
    23    23    24    1
    24    24    25    1
    25    25    26    1
    26    26    27    1
    27    13    14    1
    28    14    15    1
    29     6     1   ar
    30    15    10    1
    31    10     4    1
    32    27    22    1
@<TRIPOS>MOLECULE
*****
 29 32 0 0 0
SMALL
GASTEIGER

@<TRIPOS>ATOM
      1 C         140.1124  140.3163  169.3444 C.ar    1  UNL1        0.1389
      2 C         139.6704  140.2775  167.9115 C.ar    1  UNL1        0.0367
      3 C         140.5034  140.9353  166.8516 C.ar    1  UNL1        0.0024
      4 C         141.7784  141.6319  167.2246 C.ar    1  UNL1        0.0201
      5 C         142.2204  141.6707  168.6576 C.ar    1  UNL1        0.0779
      6 C         141.3874  141.0130  169.7174 C.ar    1  UNL1        0.0431
      7 C         143.5145  142.4264  168.7232 C.2     1  UNL1        0.3412
      8 O         144.3109  142.7049  169.9633 O.2     1  UNL1       -0.2449
      9 O         143.8723  142.8546  167.3308 O.3     1  UNL1       -0.4485
     10 C         142.7994  142.3636  166.4046 C.3     1  UNL1        0.1550
     11 C         141.6566  141.8116  165.6052 C.3     1  UNL1        0.0449
     12 C         141.6123  142.0163  164.1199 C.3     1  UNL1        0.0130
     13 C         142.7109  142.7731  163.4341 C.3     1  UNL1        0.0770
     14 C         143.8537  143.3252  164.2335 C.3     1  UNL1        0.0130
     15 C         143.8980  143.1204  165.7188 C.3     1  UNL1        0.0449
     16 C         142.6667  142.9778  161.9487 C.2     1  UNL1        0.2252
     17 O         141.7335  143.9935  161.3591 O.2     1  UNL1       -0.2749
     18 N         143.5555  142.1669  161.0531 N.am    1  UNL1       -0.2764
     19 C         143.5112  142.3716  159.5677 C.3     1  UNL1        0.1149
     20 C         144.4887  141.1512  161.6426 C.3     1  UNL1        0.1107
     21 C         144.0452  139.7268  161.7988 C.3     1  UNL1        0.0939
     22 N         143.6163  139.2179  163.1430 N.3     1  UNL1       -0.2712
     23 C         142.3228  138.4715  163.2846 C.3     1  UNL1        0.0721
     24 C         141.8939  137.9626  164.6289 C.3     1  UNL1        0.0174
     25 C         142.7584  138.2001  165.8316 C.3     1  UNL1        0.0029
     26 C         144.0518  138.9465  165.6899 C.3     1  UNL1        0.0174
     27 C         144.4807  139.4554  164.3456 C.3     1  UNL1        0.0721
     28 C         137.7828  139.7309  170.3343 C.3     1  UNL1        0.2525
     29 O         139.2794  139.6586  170.4042 O.3     1  UNL1       -0.4714
@<TRIPOS>BOND
     1    28    29    1
     2    29     1    1
     3     1     2   ar
     4     2     3   ar
     5     3     4   ar
     6     4     5   ar
     7     5     6   ar
     8     5     7    1
     9     7     8    2
    10     7     9    1
    11     9    10    1
    12    10    11    1
    13    11    12    1
    14    12    13    1
    15    13    16    1
    16    16    17    2
    17    16    18   am
    18    18    19    1
    19    18    20    1
    20    20    21    1
    21    21    22    1
    22    22    23    1
    23    23    24    1
    24    24    25    1
    25    25    26    1
    26    26    27    1
    27    13    14    1
    28    14    15    1
    29     6     1   ar
    30    15    10    1
    31    10     4    1
    32    27    22    1
@<TRIPOS>MOLECULE
*****
 29 32 0 0 0
SMALL
GASTEIGER

@<TRIPOS>ATOM
      1 C         141.7809  141.8004  168.2436 C.ar    1  UNL1        0.1389
      2 C         141.1632  142.3856  167.0083 C.ar    1  UNL1        0.0367
      3 C         141.3191  141.6886  165.6893 C.ar    1  UNL1        0.0024
      4 C         142.0928  140.4063  165.6055 C.ar    1  UNL1        0.0201
      5 C         142.7106  139.8210  166.8409 C.ar    1  UNL1        0.0779
      6 C         142.5546  140.5180  168.1598 C.ar    1  UNL1        0.0431
      7 C         143.4120  138.5532  166.4523 C.2     1  UNL1        0.3412
      8 O         144.1653  137.6435  167.3768 O.2     1  UNL1       -0.2449
      9 O         143.2277  138.3550  164.9770 O.3     1  UNL1       -0.4485
     10 C         142.4124  139.5003  164.4536 C.3     1  UNL1        0.1550
     11 C         141.5942  140.6999  164.0775 C.3     1  UNL1        0.0449
     12 C         141.1726  140.9033  162.6525 C.3     1  UNL1        0.0130
     13 C         141.5692  139.9072  161.6035 C.3     1  UNL1        0.0770
     14 C         142.3874  138.7076  161.9795 C.3     1  UNL1        0.0130
     15 C         142.8090  138.5041  163.4046 C.3     1  UNL1        0.0449
     16 C         141.1476  140.1107  160.1784 C.2     1  UNL1        0.2252
     17 O         141.8983  141.0708  159.3039 O.2     1  UNL1       -0.2749
     18 N         139.9753  139.3541  159.6277 N.am    1  UNL1       -0.2764
     19 C         139.5536  139.5576  158.2026 C.3     1  UNL1        0.1149
     20 C         139.2246  138.3940  160.5021 C.3     1  UNL1        0.1107
     21 C         138.1392  138.8958  161.4079 C.3     1  UNL1        0.0939
     22 N         138.3419  138.8934  162.8942 N.3     1  UNL1       -0.2712
     23 C         137.8945  140.0672  163.7140 C.3     1  UNL1        0.0721
     24 C         138.0972  140.0649  165.2002 C.3     1  UNL1        0.0174
     25 C         138.7473  138.8886  165.8666 C.3     1  UNL1        0.0029
     26 C         139.1947  137.7149  165.0468 C.3     1  UNL1        0.0174
     27 C         138.9920  137.7173  163.5606 C.3     1  UNL1        0.0721
     28 C         140.6140  143.5949  169.7159 C.3     1  UNL1        0.2525
     29 O         141.6249  142.4974  169.5625 O.3     1  UNL1       -0.4714
@<TRIPOS>BOND
     1    28    29    1
     2    29     1    1
     3     1     2   ar
     4     2     3   ar
     5     3     4   ar
     6     4     5   ar
     7     5     6   ar
     8     5     7    1
     9     7     8    2
    10     7     9    1
    11     9    10    1
    12    10    11    1
    13    11    12    1
    14    12    13    1
    15    13    16    1
    16    16    17    2
    17    16    18   am
    18    18    19    1
    19    18    20    1
    20    20    21    1
    21    21    22    1
    22    22    23    1
    23    23    24    1
    24    24    25    1
    25    25    26    1
    26    26    27    1
    27    13    14    1
    28    14    15    1
    29     6     1   ar
    30    15    10    1
    31    10     4    1
    32    27    22    1
@<TRIPOS>MOLECULE
*****
 29 32 0 0 0
SMALL
GASTEIGER

@<TRIPOS>ATOM
      1 C         140.1640  141.1705  169.2544 C.ar    1  UNL1        0.1389
      2 C         140.6671  142.1433  168.2294 C.ar    1  UNL1        0.0367
      3 C         140.3027  141.9665  166.7850 C.ar    1  UNL1        0.0024
      4 C         139.4351  140.8170  166.3657 C.ar    1  UNL1        0.0201
      5 C         138.9319  139.8442  167.3908 C.ar    1  UNL1        0.0779
      6 C         139.2963  140.0210  168.8350 C.ar    1  UNL1        0.0431
      7 C         138.0999  138.8153  166.6842 C.2     1  UNL1        0.3412
      8 O         137.4015  137.6536  167.3264 O.2     1  UNL1       -0.2449
      9 O         138.0889  139.1522  165.2225 O.3     1  UNL1       -0.4485
     10 C         138.9141  140.3894  165.0257 C.3     1  UNL1        0.1550
     11 C         139.7639  141.6246  164.9840 C.3     1  UNL1        0.0449
     12 C         140.0227  142.3131  163.6767 C.3     1  UNL1        0.0130
     13 C         139.4315  141.7663  162.4112 C.3     1  UNL1        0.0770
     14 C         138.5816  140.5311  162.4529 C.3     1  UNL1        0.0130
     15 C         138.3229  139.8426  163.7602 C.3     1  UNL1        0.0449
     16 C         139.6903  142.4549  161.1039 C.2     1  UNL1        0.2252
     17 O         138.6002  143.2468  160.4447 O.2     1  UNL1       -0.2749
     18 N         141.0391  142.3516  160.4558 N.am    1  UNL1       -0.2764
     19 C         141.2978  143.0401  159.1485 C.3     1  UNL1        0.1149
     20 C         142.1292  141.5597  161.1151 C.3     1  UNL1        0.1107
     21 C         142.1308  140.0626  161.0205 C.3     1  UNL1        0.0939
     22 N         141.9142  139.2332  162.2514 N.3     1  UNL1       -0.2712
     23 C         141.1136  137.9672  162.1714 C.3     1  UNL1        0.0721
     24 C         140.8969  137.1377  163.4022 C.3     1  UNL1        0.0174
     25 C         141.4810  137.5743  164.7132 C.3     1  UNL1        0.0029
     26 C         142.2815  138.8402  164.7932 C.3     1  UNL1        0.0174
     27 C         142.4982  139.6696  163.5623 C.3     1  UNL1        0.0721
     28 C         141.9507  141.1694  171.1404 C.3     1  UNL1        0.2525
     29 O         140.5284  141.3473  170.6985 O.3     1  UNL1       -0.4714
@<TRIPOS>BOND
     1    28    29    1
     2    29     1    1
     3     1     2   ar
     4     2     3   ar
     5     3     4   ar
     6     4     5   ar
     7     5     6   ar
     8     5     7    1
     9     7     8    2
    10     7     9    1
    11     9    10    1
    12    10    11    1
    13    11    12    1
    14    12    13    1
    15    13    16    1
    16    16    17    2
    17    16    18   am
    18    18    19    1
    19    18    20    1
    20    20    21    1
    21    21    22    1
    22    22    23    1
    23    23    24    1
    24    24    25    1
    25    25    26    1
    26    26    27    1
    27    13    14    1
    28    14    15    1
    29     6     1   ar
    30    15    10    1
    31    10     4    1
    32    27    22    1
@<TRIPOS>MOLECULE
*****
 29 32 0 0 0
SMALL
GASTEIGER

@<TRIPOS>ATOM
      1 C         139.4083  144.6270  162.0886 C.ar    1  UNL1        0.1389
      2 C         140.0467  144.7162  163.4430 C.ar    1  UNL1        0.0367
      3 C         139.9206  143.5749  164.4083 C.ar    1  UNL1        0.0024
      4 C         139.1562  142.3444  164.0190 C.ar    1  UNL1        0.0201
      5 C         138.5178  142.2552  162.6645 C.ar    1  UNL1        0.0779
      6 C         138.6438  143.3965  161.6994 C.ar    1  UNL1        0.0431
      7 C         137.8315  140.9253  162.5621 C.2     1  UNL1        0.3412
      8 O         137.0655  140.4174  161.3768 O.2     1  UNL1       -0.2449
      9 O         138.0458  140.1926  163.8533 O.3     1  UNL1       -0.4485
     10 C         138.8645  141.0696  164.7537 C.3     1  UNL1        0.1550
     11 C         139.6829  142.0521  165.5378 C.3     1  UNL1        0.0449
     12 C         140.1312  141.7138  166.9286 C.3     1  UNL1        0.0130
     13 C         139.7610  140.3929  167.5354 C.3     1  UNL1        0.0770
     14 C         138.9426  139.4103  166.7514 C.3     1  UNL1        0.0130
     15 C         138.4943  139.7487  165.3605 C.3     1  UNL1        0.0449
     16 C         140.2093  140.0545  168.9264 C.2     1  UNL1        0.2252
     17 O         139.1961  139.8707  170.0170 O.2     1  UNL1       -0.2749
     18 N         141.6708  139.9001  169.2266 N.am    1  UNL1       -0.2764
     19 C         142.1191  139.5617  170.6175 C.3     1  UNL1        0.1149
     20 C         142.6840  140.0839  168.1359 C.3     1  UNL1        0.1107
     21 C         142.9576  138.9688  167.1706 C.3     1  UNL1        0.0939
     22 N         142.5244  139.0924  165.7398 N.3     1  UNL1       -0.2712
     23 C         141.7924  137.9629  165.0776 C.3     1  UNL1        0.0721
     24 C         141.3592  138.0864  163.6469 C.3     1  UNL1        0.0174
     25 C         141.6582  139.3394  162.8782 C.3     1  UNL1        0.0029
     26 C         142.3902  140.4688  163.5404 C.3     1  UNL1        0.0174
     27 C         142.8233  140.3453  164.9712 C.3     1  UNL1        0.0721
     28 C         140.2889  145.5854  159.8401 C.3     1  UNL1        0.2525
     29 O         139.5343  145.7683  161.1235 O.3     1  UNL1       -0.4714
@<TRIPOS>BOND
     1    28    29    1
     2    29     1    1
     3     1     2   ar
     4     2     3   ar
     5     3     4   ar
     6     4     5   ar
     7     5     6   ar
     8     5     7    1
     9     7     8    2
    10     7     9    1
    11     9    10    1
    12    10    11    1
    13    11    12    1
    14    12    13    1
    15    13    16    1
    16    16    17    2
    17    16    18   am
    18    18    19    1
    19    18    20    1
    20    20    21    1
    21    21    22    1
    22    22    23    1
    23    23    24    1
    24    24    25    1
    25    25    26    1
    26    26    27    1
    27    13    14    1
    28    14    15    1
    29     6     1   ar
    30    15    10    1
    31    10     4    1
    32    27    22    1
@<TRIPOS>MOLECULE
*****
 29 32 0 0 0
SMALL
GASTEIGER

@<TRIPOS>ATOM
      1 C         138.7699  139.5071  167.2299 C.ar    1  UNL1        0.1389
      2 C         138.7742  139.3821  165.7351 C.ar    1  UNL1        0.0367
      3 C         139.7623  140.1627  164.9200 C.ar    1  UNL1        0.0024
      4 C         140.7461  141.0684  165.5998 C.ar    1  UNL1        0.0201
      5 C         140.7417  141.1934  167.0947 C.ar    1  UNL1        0.0779
      6 C         139.7537  140.4128  167.9096 C.ar    1  UNL1        0.0431
      7 C         141.8232  142.1579  167.4823 C.2     1  UNL1        0.3412
      8 O         142.1708  142.5777  168.8797 O.2     1  UNL1       -0.2449
      9 O         142.4958  142.6290  166.2271 O.3     1  UNL1       -0.4485
     10 C         141.8302  141.9556  165.0636 C.3     1  UNL1        0.1550
     11 C         141.0716  141.2113  164.0051 C.3     1  UNL1        0.0449
     12 C         141.4276  141.3933  162.5593 C.3     1  UNL1        0.0130
     13 C         142.5421  142.3196  162.1722 C.3     1  UNL1        0.0770
     14 C         143.3006  143.0639  163.2307 C.3     1  UNL1        0.0130
     15 C         142.9446  142.8819  164.6764 C.3     1  UNL1        0.0449
     16 C         142.8980  142.5015  160.7263 C.2     1  UNL1        0.2252
     17 O         143.7863  141.5055  160.0416 O.2     1  UNL1       -0.2749
     18 N         142.3656  143.6794  159.9654 N.am    1  UNL1       -0.2764
     19 C         142.7215  143.8613  158.5196 C.3     1  UNL1        0.1149
     20 C         141.4773  144.6754  160.6501 C.3     1  UNL1        0.1107
     21 C         139.9975  144.4392  160.7168 C.3     1  UNL1        0.0939
     22 N         139.3469  144.1230  162.0309 N.3     1  UNL1       -0.2712
     23 C         139.8206  144.7982  163.2839 C.3     1  UNL1        0.0721
     24 C         139.1700  144.4820  164.5980 C.3     1  UNL1        0.0174
     25 C         138.0459  143.4907  164.6591 C.3     1  UNL1        0.0029
     26 C         137.5723  142.8156  163.4062 C.3     1  UNL1        0.0174
     27 C         138.2228  143.1318  162.0921 C.3     1  UNL1        0.0721
     28 C         137.0172  137.5985  167.4180 C.3     1  UNL1        0.2525
     29 O         137.7818  138.7265  168.0449 O.3     1  UNL1       -0.4714
@<TRIPOS>BOND
     1    28    29    1
     2    29     1    1
     3     1     2   ar
     4     2     3   ar
     5     3     4   ar
     6     4     5   ar
     7     5     6   ar
     8     5     7    1
     9     7     8    2
    10     7     9    1
    11     9    10    1
    12    10    11    1
    13    11    12    1
    14    12    13    1
    15    13    16    1
    16    16    17    2
    17    16    18   am
    18    18    19    1
    19    18    20    1
    20    20    21    1
    21    21    22    1
    22    22    23    1
    23    23    24    1
    24    24    25    1
    25    25    26    1
    26    26    27    1
    27    13    14    1
    28    14    15    1
    29     6     1   ar
    30    15    10    1
    31    10     4    1
    32    27    22    1
