@<TRIPOS>MOLECULE
*****
 29 31 0 0 0
SMALL
GASTEIGER

@<TRIPOS>ATOM
      1 C         138.0957  138.2975  162.0473 C.3     1  UNL1        0.0937
      2 N         138.5448  138.7959  163.3889 N.3     1  UNL1       -0.2683
      3 C         139.3820  137.9195  164.2728 C.3     1  UNL1        0.0939
      4 C         139.8311  138.4179  165.6144 C.3     1  UNL1        0.1081
      5 N         139.4431  139.7927  166.0721 N.pl3   1  UNL1       -0.3049
      6 C         138.6060  140.6691  165.1882 C.3     1  UNL1        0.1081
      7 C         138.1569  140.1707  163.8466 C.3     1  UNL1        0.0939
      8 C         139.8922  140.2911  167.4136 C.ar    1  UNL1        0.0436
      9 C         139.0590  140.0214  168.6314 C.ar    1  UNL1        0.0142
     10 C         139.5081  140.5198  169.9730 C.ar    1  UNL1        0.0009
     11 C         140.7905  141.2880  170.0968 C.ar    1  UNL1       -0.0045
     12 C         141.6237  141.5578  168.8791 C.ar    1  UNL1       -0.0246
     13 C         142.9061  142.3260  169.0030 C.3     1  UNL1        0.0307
     14 C         141.1746  141.0593  167.5375 C.ar    1  UNL1       -0.0125
     15 C         142.0079  141.3291  166.3198 C.3     1  UNL1        0.0320
     16 C         139.0130  138.3970  160.8647 C.3     1  UNL1        0.1070
     17 C         141.5196  138.8752  161.3535 C.2     1  UNL1        0.2637
     18 O         141.7069  137.4511  161.7857 O.2     1  UNL1       -0.2685
     19 N         140.1727  139.3482  160.8930 N.am    1  UNL1       -0.2982
     20 H         140.0497  140.2829  160.6093 H       1  UNL1        0.1498
     21 C         144.1420  141.6260  160.2108 C.ar    1  UNL1        0.1898
     22 N         144.9983  141.7285  161.4381 N.ar    1  UNL1       -0.2256
     23 C         144.6950  140.8799  162.6372 C.ar    1  UNL1        0.0632
     24 C         145.5513  140.9824  163.8646 C.3     1  UNL1        0.0522
     25 C         143.5354  139.9288  162.6090 C.ar    1  UNL1        0.0386
     26 C         142.6792  139.8263  161.3817 C.ar    1  UNL1        0.1377
     27 N         142.9825  140.6750  160.1826 N.ar    1  UNL1       -0.2166
     28 C         143.3303  143.1487  158.2685 C.3     1  UNL1        0.0772
     29 S         144.4453  142.4747  159.0117 S.3     1  UNL1       -0.0748
@<TRIPOS>BOND
     1    28    29    1
     2    29    21    1
     3    21    22   ar
     4    22    23   ar
     5    23    24    1
     6    23    25   ar
     7    25    26   ar
     8    26    17    1
     9    17    18    2
    10    17    19   am
    11    19    16    1
    12    16     1    1
    13     1     2    1
    14     2     3    1
    15     3     4    1
    16     4     5    1
    17     5     8    1
    18     8     9   ar
    19     9    10   ar
    20    10    11   ar
    21    11    12   ar
    22    12    13    1
    23    12    14   ar
    24    14    15    1
    25     5     6    1
    26     6     7    1
    27    26    27   ar
    28    27    21   ar
    29     7     2    1
    30    14     8   ar
    31    19    20    1
@<TRIPOS>MOLECULE
*****
 29 31 0 0 0
SMALL
GASTEIGER

@<TRIPOS>ATOM
      1 C         140.7091  137.4410  163.3525 C.3     1  UNL1        0.0937
      2 N         140.7055  138.2080  164.6416 N.3     1  UNL1       -0.2683
      3 C         139.4067  138.5260  165.3215 C.3     1  UNL1        0.0939
      4 C         139.4032  139.2930  166.6106 C.3     1  UNL1        0.1081
      5 N         140.6982  139.7421  167.2197 N.pl3   1  UNL1       -0.3049
      6 C         141.9969  139.4241  166.5398 C.3     1  UNL1        0.1081
      7 C         142.0006  138.6571  165.2507 C.3     1  UNL1        0.0939
      8 C         140.6947  140.5091  168.5087 C.ar    1  UNL1        0.0436
      9 C         140.8616  139.7859  169.8123 C.ar    1  UNL1        0.0142
     10 C         140.8580  140.5529  171.1013 C.ar    1  UNL1        0.0009
     11 C         140.6875  142.0431  171.0869 C.ar    1  UNL1       -0.0045
     12 C         140.5206  142.7663  169.7834 C.ar    1  UNL1       -0.0246
     13 C         140.3501  144.2565  169.7690 C.3     1  UNL1        0.0307
     14 C         140.5242  141.9993  168.4943 C.ar    1  UNL1       -0.0125
     15 C         140.3572  142.7225  167.1908 C.3     1  UNL1        0.0320
     16 C         140.3959  138.1402  162.0630 C.3     1  UNL1        0.1070
     17 C         140.2793  140.7350  162.0020 C.2     1  UNL1        0.2637
     18 O         138.8885  140.6856  162.5616 O.2     1  UNL1       -0.2685
     19 N         141.0330  139.4623  161.7527 N.am    1  UNL1       -0.2982
     20 H         141.9459  139.4947  161.3854 H       1  UNL1        0.1498
     21 C         142.7505  143.8362  162.1613 C.ar    1  UNL1        0.1898
     22 N         142.1906  144.7011  161.0712 N.ar    1  UNL1       -0.2256
     23 C         140.9936  144.2440  160.2914 C.ar    1  UNL1        0.0632
     24 C         140.4336  145.1090  159.2012 C.3     1  UNL1        0.0522
     25 C         140.3565  142.9220  160.6016 C.ar    1  UNL1        0.0386
     26 C         140.9164  142.0571  161.6917 C.ar    1  UNL1        0.1377
     27 N         142.1134  142.5142  162.4715 N.ar    1  UNL1       -0.2166
     28 C         144.0367  144.0120  164.4118 C.3     1  UNL1        0.0772
     29 S         143.9476  144.2933  162.9411 S.3     1  UNL1       -0.0748
@<TRIPOS>BOND
     1    28    29    1
     2    29    21    1
     3    21    22   ar
     4    22    23   ar
     5    23    24    1
     6    23    25   ar
     7    25    26   ar
     8    26    17    1
     9    17    18    2
    10    17    19   am
    11    19    16    1
    12    16     1    1
    13     1     2    1
    14     2     3    1
    15     3     4    1
    16     4     5    1
    17     5     8    1
    18     8     9   ar
    19     9    10   ar
    20    10    11   ar
    21    11    12   ar
    22    12    13    1
    23    12    14   ar
    24    14    15    1
    25     5     6    1
    26     6     7    1
    27    26    27   ar
    28    27    21   ar
    29     7     2    1
    30    14     8   ar
    31    19    20    1
@<TRIPOS>MOLECULE
*****
 29 31 0 0 0
SMALL
GASTEIGER

@<TRIPOS>ATOM
      1 C         145.6038  141.6915  163.2091 C.3     1  UNL1        0.0937
      2 N         144.5807  141.4619  164.2817 N.3     1  UNL1       -0.2683
      3 C         143.9735  142.6296  165.0014 C.3     1  UNL1        0.0939
      4 C         142.9505  142.3999  166.0741 C.3     1  UNL1        0.1081
      5 N         142.5346  141.0026  166.4271 N.pl3   1  UNL1       -0.3049
      6 C         143.1418  139.8350  165.7075 C.3     1  UNL1        0.1081
      7 C         144.1649  140.0646  164.6347 C.3     1  UNL1        0.0939
      8 C         141.5116  140.7729  167.4997 C.ar    1  UNL1        0.0436
      9 C         140.1767  140.1850  167.1496 C.ar    1  UNL1        0.0142
     10 C         139.1537  139.9554  168.2222 C.ar    1  UNL1        0.0009
     11 C         139.4655  140.3136  169.6451 C.ar    1  UNL1       -0.0045
     12 C         140.8003  140.9015  169.9953 C.ar    1  UNL1       -0.0246
     13 C         141.1121  141.2597  171.4181 C.3     1  UNL1        0.0307
     14 C         141.8234  141.1312  168.9226 C.ar    1  UNL1       -0.0125
     15 C         143.1582  141.7190  169.2728 C.3     1  UNL1        0.0320
     16 C         145.1918  142.2852  161.8946 C.3     1  UNL1        0.1070
     17 C         142.8656  143.3941  161.5646 C.2     1  UNL1        0.2637
     18 O         143.3974  144.6778  162.1297 O.2     1  UNL1       -0.2685
     19 N         143.7628  142.1978  161.4471 N.am    1  UNL1       -0.2982
     20 H         143.4137  141.3553  161.0762 H       1  UNL1        0.1498
     21 C         138.9153  143.0307  161.6804 C.ar    1  UNL1        0.1898
     22 N         138.5785  143.1320  160.2222 N.ar    1  UNL1       -0.2256
     23 C         139.6707  143.3206  159.2115 C.ar    1  UNL1        0.0632
     24 C         139.3338  143.4218  157.7533 C.3     1  UNL1        0.0522
     25 C         141.0997  143.4080  159.6590 C.ar    1  UNL1        0.0386
     26 C         141.4365  143.3067  161.1171 C.ar    1  UNL1        0.1377
     27 N         140.3443  143.1181  162.1278 N.ar    1  UNL1       -0.2166
     28 C         137.3855  141.4593  163.0732 C.3     1  UNL1        0.0772
     29 S         137.8231  142.8421  162.6911 S.3     1  UNL1       -0.0748
@<TRIPOS>BOND
     1    28    29    1
     2    29    21    1
     3    21    22   ar
     4    22    23   ar
     5    23    24    1
     6    23    25   ar
     7    25    26   ar
     8    26    17    1
     9    17    18    2
    10    17    19   am
    11    19    16    1
    12    16     1    1
    13     1     2    1
    14     2     3    1
    15     3     4    1
    16     4     5    1
    17     5     8    1
    18     8     9   ar
    19     9    10   ar
    20    10    11   ar
    21    11    12   ar
    22    12    13    1
    23    12    14   ar
    24    14    15    1
    25     5     6    1
    26     6     7    1
    27    26    27   ar
    28    27    21   ar
    29     7     2    1
    30    14     8   ar
    31    19    20    1
@<TRIPOS>MOLECULE
*****
 29 31 0 0 0
SMALL
GASTEIGER

@<TRIPOS>ATOM
      1 C         145.6314  141.4063  163.6926 C.3     1  UNL1        0.0937
      2 N         144.4712  141.1606  164.6110 N.3     1  UNL1       -0.2683
      3 C         144.1220  139.7604  165.0204 C.3     1  UNL1        0.0939
      4 C         142.9618  139.5147  165.9387 C.3     1  UNL1        0.1081
      5 N         142.1506  140.6692  166.4477 N.pl3   1  UNL1       -0.3049
      6 C         142.4996  142.0694  166.0383 C.3     1  UNL1        0.1081
      7 C         143.6599  142.3151  165.1199 C.3     1  UNL1        0.0939
      8 C         140.9903  140.4236  167.3660 C.ar    1  UNL1        0.0436
      9 C         141.0172  140.9570  168.7678 C.ar    1  UNL1        0.0142
     10 C         139.8569  140.7113  169.6861 C.ar    1  UNL1        0.0009
     11 C         138.6697  139.9323  169.2027 C.ar    1  UNL1       -0.0045
     12 C         138.6427  139.3989  167.8010 C.ar    1  UNL1       -0.0246
     13 C         137.4555  138.6199  167.3177 C.3     1  UNL1        0.0307
     14 C         139.8030  139.6446  166.8826 C.ar    1  UNL1       -0.0125
     15 C         139.7761  139.1112  165.4809 C.3     1  UNL1        0.0320
     16 C         145.4259  142.1518  162.4074 C.3     1  UNL1        0.1070
     17 C         143.5403  143.9164  162.1233 C.2     1  UNL1        0.2637
     18 O         144.4281  144.9626  162.7294 O.2     1  UNL1       -0.2685
     19 N         144.0392  142.5111  161.9622 N.am    1  UNL1       -0.2982
     20 H         143.4565  141.8244  161.5644 H       1  UNL1        0.1498
     21 C         140.5282  145.1044  159.8284 C.ar    1  UNL1        0.1898
     22 N         139.3804  144.9943  160.7878 N.ar    1  UNL1       -0.2256
     23 C         139.6192  144.5249  162.1923 C.ar    1  UNL1        0.0632
     24 C         138.4713  144.4147  163.1516 C.3     1  UNL1        0.0522
     25 C         141.0058  144.1656  162.6374 C.ar    1  UNL1        0.0386
     26 C         142.1536  144.2757  161.6781 C.ar    1  UNL1        0.1377
     27 N         141.9148  144.7451  160.2736 N.ar    1  UNL1       -0.2166
     28 C         141.4104  145.5589  157.4274 C.3     1  UNL1        0.0772
     29 S         140.2894  145.5738  158.4239 S.3     1  UNL1       -0.0748
@<TRIPOS>BOND
     1    28    29    1
     2    29    21    1
     3    21    22   ar
     4    22    23   ar
     5    23    24    1
     6    23    25   ar
     7    25    26   ar
     8    26    17    1
     9    17    18    2
    10    17    19   am
    11    19    16    1
    12    16     1    1
    13     1     2    1
    14     2     3    1
    15     3     4    1
    16     4     5    1
    17     5     8    1
    18     8     9   ar
    19     9    10   ar
    20    10    11   ar
    21    11    12   ar
    22    12    13    1
    23    12    14   ar
    24    14    15    1
    25     5     6    1
    26     6     7    1
    27    26    27   ar
    28    27    21   ar
    29     7     2    1
    30    14     8   ar
    31    19    20    1
@<TRIPOS>MOLECULE
*****
 29 31 0 0 0
SMALL
GASTEIGER

@<TRIPOS>ATOM
      1 C         139.9473  137.6289  163.2984 C.3     1  UNL1        0.0937
      2 N         140.0747  138.3595  164.6021 N.3     1  UNL1       -0.2683
      3 C         138.8445  138.7490  165.3670 C.3     1  UNL1        0.0939
      4 C         138.9720  139.4796  166.6708 C.3     1  UNL1        0.1081
      5 N         140.3296  139.8207  167.2098 N.pl3   1  UNL1       -0.3049
      6 C         141.5597  139.4313  166.4450 C.3     1  UNL1        0.1081
      7 C         141.4323  138.7006  165.1411 C.3     1  UNL1        0.0939
      8 C         140.4570  140.5513  168.5136 C.ar    1  UNL1        0.0436
      9 C         140.6267  139.7828  169.7906 C.ar    1  UNL1        0.0142
     10 C         140.7541  140.5134  171.0944 C.ar    1  UNL1        0.0009
     11 C         140.7119  142.0125  171.1213 C.ar    1  UNL1       -0.0045
     12 C         140.5423  142.7811  169.8444 C.ar    1  UNL1       -0.0246
     13 C         140.5001  144.2803  169.8713 C.3     1  UNL1        0.0307
     14 C         140.4148  142.0505  168.5405 C.ar    1  UNL1       -0.0125
     15 C         140.2452  142.8191  167.2636 C.3     1  UNL1        0.0320
     16 C         139.8071  138.3980  162.0183 C.3     1  UNL1        0.1070
     17 C         141.5272  140.3370  161.8405 C.2     1  UNL1        0.2637
     18 O         142.6404  139.3387  161.7220 O.2     1  UNL1       -0.2685
     19 N         140.1106  139.8667  161.9887 N.am    1  UNL1       -0.2982
     20 H         139.3800  140.5220  162.0665 H       1  UNL1        0.1498
     21 C         141.6373  144.1202  160.6465 C.ar    1  UNL1        0.1898
     22 N         142.4376  144.7431  161.7517 N.ar    1  UNL1       -0.2256
     23 C         142.9345  143.8973  162.8865 C.ar    1  UNL1        0.0632
     24 C         143.7349  144.5203  163.9917 C.3     1  UNL1        0.0522
     25 C         142.6311  142.4286  162.9161 C.ar    1  UNL1        0.0386
     26 C         141.8307  141.8058  161.8110 C.ar    1  UNL1        0.1377
     27 N         141.3338  142.6516  160.6762 N.ar    1  UNL1       -0.2166
     28 C         141.3754  144.5332  158.0949 C.3     1  UNL1        0.0772
     29 S         141.1404  144.9660  159.5117 S.3     1  UNL1       -0.0748
@<TRIPOS>BOND
     1    28    29    1
     2    29    21    1
     3    21    22   ar
     4    22    23   ar
     5    23    24    1
     6    23    25   ar
     7    25    26   ar
     8    26    17    1
     9    17    18    2
    10    17    19   am
    11    19    16    1
    12    16     1    1
    13     1     2    1
    14     2     3    1
    15     3     4    1
    16     4     5    1
    17     5     8    1
    18     8     9   ar
    19     9    10   ar
    20    10    11   ar
    21    11    12   ar
    22    12    13    1
    23    12    14   ar
    24    14    15    1
    25     5     6    1
    26     6     7    1
    27    26    27   ar
    28    27    21   ar
    29     7     2    1
    30    14     8   ar
    31    19    20    1
@<TRIPOS>MOLECULE
*****
 29 31 0 0 0
SMALL
GASTEIGER

@<TRIPOS>ATOM
      1 C         137.6677  138.8343  161.6025 C.3     1  UNL1        0.0937
      2 N         138.2431  139.2092  162.9360 N.3     1  UNL1       -0.2683
      3 C         137.8453  140.5001  163.5883 C.3     1  UNL1        0.0939
      4 C         138.4207  140.8751  164.9218 C.3     1  UNL1        0.1081
      5 N         139.3938  139.9592  165.6031 N.pl3   1  UNL1       -0.3049
      6 C         139.7916  138.6683  164.9509 C.3     1  UNL1        0.1081
      7 C         139.2162  138.2933  163.6173 C.3     1  UNL1        0.0939
      8 C         139.9692  140.3341  166.9366 C.ar    1  UNL1        0.0436
      9 C         139.2681  139.9245  168.1979 C.ar    1  UNL1        0.0142
     10 C         139.8435  140.2995  169.5314 C.ar    1  UNL1        0.0009
     11 C         141.1200  141.0839  169.6038 C.ar    1  UNL1       -0.0045
     12 C         141.8211  141.4935  168.3425 C.ar    1  UNL1       -0.0246
     13 C         143.0975  142.2779  168.4148 C.3     1  UNL1        0.0307
     14 C         141.2457  141.1186  167.0089 C.ar    1  UNL1       -0.0125
     15 C         141.9468  141.5281  165.7477 C.3     1  UNL1        0.0320
     16 C         137.5732  139.8593  160.5115 C.3     1  UNL1        0.1070
     17 C         138.8841  142.0942  160.3193 C.2     1  UNL1        0.2637
     18 O         137.7484  142.8173  160.9807 O.2     1  UNL1       -0.2685
     19 N         138.7965  140.6153  160.0846 N.am    1  UNL1       -0.2982
     20 H         139.5419  140.1408  159.6505 H       1  UNL1        0.1498
     21 C         142.6762  143.2222  160.0062 C.ar    1  UNL1        0.1898
     22 N         142.5539  144.3621  159.0388 N.ar    1  UNL1       -0.2256
     23 C         141.2084  144.7460  158.4983 C.ar    1  UNL1        0.0632
     24 C         141.0862  145.8859  157.5309 C.3     1  UNL1        0.0522
     25 C         139.9851  143.9901  158.9251 C.ar    1  UNL1        0.0386
     26 C         140.1074  142.8502  159.8924 C.ar    1  UNL1        0.1377
     27 N         141.4529  142.4663  160.4330 N.ar    1  UNL1       -0.2166
     28 C         144.3635  143.1229  161.9792 C.3     1  UNL1        0.0772
     29 S         144.0217  142.8383  160.5467 S.3     1  UNL1       -0.0748
@<TRIPOS>BOND
     1    28    29    1
     2    29    21    1
     3    21    22   ar
     4    22    23   ar
     5    23    24    1
     6    23    25   ar
     7    25    26   ar
     8    26    17    1
     9    17    18    2
    10    17    19   am
    11    19    16    1
    12    16     1    1
    13     1     2    1
    14     2     3    1
    15     3     4    1
    16     4     5    1
    17     5     8    1
    18     8     9   ar
    19     9    10   ar
    20    10    11   ar
    21    11    12   ar
    22    12    13    1
    23    12    14   ar
    24    14    15    1
    25     5     6    1
    26     6     7    1
    27    26    27   ar
    28    27    21   ar
    29     7     2    1
    30    14     8   ar
    31    19    20    1
@<TRIPOS>MOLECULE
*****
 29 31 0 0 0
SMALL
GASTEIGER

@<TRIPOS>ATOM
      1 C         138.2589  142.4105  157.3411 C.3     1  UNL1        0.0937
      2 N         138.5518  141.6094  158.5749 N.3     1  UNL1       -0.2683
      3 C         139.6412  142.0438  159.5101 C.3     1  UNL1        0.0939
      4 C         139.9340  141.2426  160.7440 C.3     1  UNL1        0.1081
      5 N         139.1376  140.0072  161.0426 N.pl3   1  UNL1       -0.3049
      6 C         138.0482  139.5728  160.1075 C.3     1  UNL1        0.1081
      7 C         137.7553  140.3739  158.8736 C.3     1  UNL1        0.0939
      8 C         139.4305  139.2060  162.2765 C.ar    1  UNL1        0.0436
      9 C         140.4080  138.0697  162.2184 C.ar    1  UNL1        0.0142
     10 C         140.7009  137.2686  163.4523 C.ar    1  UNL1        0.0009
     11 C         140.0163  137.6037  164.7442 C.ar    1  UNL1       -0.0045
     12 C         139.0388  138.7400  164.8022 C.ar    1  UNL1       -0.0246
     13 C         138.3542  139.0751  166.0941 C.3     1  UNL1        0.0307
     14 C         138.7459  139.5412  163.5684 C.ar    1  UNL1       -0.0125
     15 C         137.7684  140.6774  163.6264 C.3     1  UNL1        0.0320
     16 C         137.4264  141.8186  156.2427 C.3     1  UNL1        0.1070
     17 C         135.1825  140.5326  155.9950 C.2     1  UNL1        0.2637
     18 O         135.9258  139.3339  155.4845 O.2     1  UNL1       -0.2685
     19 N         135.9327  141.7749  156.3740 N.am    1  UNL1       -0.2982
     20 H         135.4448  142.5617  156.7091 H       1  UNL1        0.1498
     21 C         131.3435  141.3760  155.4464 C.ar    1  UNL1        0.1898
     22 N         130.7017  140.4016  156.3890 N.ar    1  UNL1       -0.2256
     23 C         131.5535  139.4709  157.2003 C.ar    1  UNL1        0.0632
     24 C         130.9116  138.4964  158.1430 C.3     1  UNL1        0.0522
     25 C         133.0470  139.5145  157.0690 C.ar    1  UNL1        0.0386
     26 C         133.6888  140.4889  156.1264 C.ar    1  UNL1        0.1377
     27 N         132.8371  141.4197  155.3151 N.ar    1  UNL1       -0.2166
     28 C         129.0576  142.5319  155.0125 C.3     1  UNL1        0.0772
     29 S         130.4917  142.3068  154.6351 S.3     1  UNL1       -0.0748
@<TRIPOS>BOND
     1    28    29    1
     2    29    21    1
     3    21    22   ar
     4    22    23   ar
     5    23    24    1
     6    23    25   ar
     7    25    26   ar
     8    26    17    1
     9    17    18    2
    10    17    19   am
    11    19    16    1
    12    16     1    1
    13     1     2    1
    14     2     3    1
    15     3     4    1
    16     4     5    1
    17     5     8    1
    18     8     9   ar
    19     9    10   ar
    20    10    11   ar
    21    11    12   ar
    22    12    13    1
    23    12    14   ar
    24    14    15    1
    25     5     6    1
    26     6     7    1
    27    26    27   ar
    28    27    21   ar
    29     7     2    1
    30    14     8   ar
    31    19    20    1
@<TRIPOS>MOLECULE
*****
 29 31 0 0 0
SMALL
GASTEIGER

@<TRIPOS>ATOM
      1 C         139.1142  138.1050  160.7965 C.3     1  UNL1        0.0937
      2 N         139.5246  138.5012  162.1838 N.3     1  UNL1       -0.2683
      3 C         140.0342  137.4641  163.1403 C.3     1  UNL1        0.0939
      4 C         140.4446  137.8604  164.5275 C.3     1  UNL1        0.1081
      5 N         140.3454  139.2937  164.9584 N.pl3   1  UNL1       -0.3049
      6 C         139.8358  140.3308  164.0020 C.3     1  UNL1        0.1081
      7 C         139.4254  139.9346  162.6147 C.3     1  UNL1        0.0939
      8 C         140.7558  139.6900  166.3457 C.ar    1  UNL1        0.0436
      9 C         142.1883  140.0266  166.6367 C.ar    1  UNL1        0.0142
     10 C         142.5987  140.4228  168.0240 C.ar    1  UNL1        0.0009
     11 C         141.5766  140.4825  169.1202 C.ar    1  UNL1       -0.0045
     12 C         140.1441  140.1459  168.8292 C.ar    1  UNL1       -0.0246
     13 C         139.1220  140.2056  169.9255 C.3     1  UNL1        0.0307
     14 C         139.7337  139.7496  167.4419 C.ar    1  UNL1       -0.0125
     15 C         138.3012  139.4131  167.1509 C.3     1  UNL1        0.0320
     16 C         139.4239  139.0048  159.6370 C.3     1  UNL1        0.1070
     17 C         141.7934  138.4171  158.7481 C.2     1  UNL1        0.2637
     18 O         142.3845  138.7949  160.0739 O.2     1  UNL1       -0.2685
     19 N         140.3131  138.5220  158.5296 N.am    1  UNL1       -0.2982
     20 H         139.9252  138.2740  157.6594 H       1  UNL1        0.1498
     21 C         144.3546  138.4366  155.7165 C.ar    1  UNL1        0.1898
     22 N         144.4610  136.9689  155.4259 N.ar    1  UNL1       -0.2256
     23 C         143.6783  135.9839  156.2427 C.ar    1  UNL1        0.0632
     24 C         143.7848  134.5162  155.9520 C.3     1  UNL1        0.0522
     25 C         142.7891  136.4666  157.3501 C.ar    1  UNL1        0.0386
     26 C         142.6826  137.9343  157.6407 C.ar    1  UNL1        0.1377
     27 N         143.4654  138.9193  156.8239 N.ar    1  UNL1       -0.2166
     28 C         145.8835  140.5325  155.5772 C.3     1  UNL1        0.0772
     29 S         145.1373  139.4216  154.8998 S.3     1  UNL1       -0.0748
@<TRIPOS>BOND
     1    28    29    1
     2    29    21    1
     3    21    22   ar
     4    22    23   ar
     5    23    24    1
     6    23    25   ar
     7    25    26   ar
     8    26    17    1
     9    17    18    2
    10    17    19   am
    11    19    16    1
    12    16     1    1
    13     1     2    1
    14     2     3    1
    15     3     4    1
    16     4     5    1
    17     5     8    1
    18     8     9   ar
    19     9    10   ar
    20    10    11   ar
    21    11    12   ar
    22    12    13    1
    23    12    14   ar
    24    14    15    1
    25     5     6    1
    26     6     7    1
    27    26    27   ar
    28    27    21   ar
    29     7     2    1
    30    14     8   ar
    31    19    20    1
@<TRIPOS>MOLECULE
*****
 29 31 0 0 0
SMALL
GASTEIGER

@<TRIPOS>ATOM
      1 C         138.8641  138.1107  161.2527 C.3     1  UNL1        0.0937
      2 N         138.9958  138.6226  162.6565 N.3     1  UNL1       -0.2683
      3 C         138.0829  139.7064  163.1484 C.3     1  UNL1        0.0939
      4 C         138.2146  140.2183  164.5521 C.3     1  UNL1        0.1081
      5 N         139.2592  139.6464  165.4641 N.pl3   1  UNL1       -0.3049
      6 C         140.1721  138.5626  164.9723 C.3     1  UNL1        0.1081
      7 C         140.0405  138.0507  163.5684 C.3     1  UNL1        0.0939
      8 C         139.3909  140.1583  166.8678 C.ar    1  UNL1        0.0436
      9 C         138.6417  139.4909  167.9829 C.ar    1  UNL1        0.0142
     10 C         138.7734  140.0028  169.3867 C.ar    1  UNL1        0.0009
     11 C         139.6543  141.1820  169.6754 C.ar    1  UNL1       -0.0045
     12 C         140.4035  141.8494  168.5605 C.ar    1  UNL1       -0.0246
     13 C         141.2844  143.0286  168.8492 C.3     1  UNL1        0.0307
     14 C         140.2718  141.3375  167.1566 C.ar    1  UNL1       -0.0125
     15 C         141.0211  142.0049  166.0416 C.3     1  UNL1        0.0320
     16 C         139.4378  138.8965  160.1110 C.3     1  UNL1        0.1070
     17 C         139.0490  141.4066  159.5648 C.2     1  UNL1        0.2637
     18 O         137.9312  141.0316  158.6374 O.2     1  UNL1       -0.2685
     19 N         139.8023  140.3390  160.3016 N.am    1  UNL1       -0.2982
     20 H         140.5359  140.5851  160.9102 H       1  UNL1        0.1498
     21 C         139.7668  144.8928  161.3201 C.ar    1  UNL1        0.1898
     22 N         140.1424  145.7341  160.1365 N.ar    1  UNL1       -0.2256
     23 C         140.1535  145.1329  158.7622 C.ar    1  UNL1        0.0632
     24 C         140.5291  145.9744  157.5786 C.3     1  UNL1        0.0522
     25 C         139.7890  143.6905  158.5717 C.ar    1  UNL1        0.0386
     26 C         139.4135  142.8491  159.7553 C.ar    1  UNL1        0.1377
     27 N         139.4024  143.4503  161.1295 N.ar    1  UNL1       -0.2166
     28 C         139.1732  144.7265  163.8440 C.3     1  UNL1        0.0772
     29 S         139.7557  145.4939  162.6943 S.3     1  UNL1       -0.0748
@<TRIPOS>BOND
     1    28    29    1
     2    29    21    1
     3    21    22   ar
     4    22    23   ar
     5    23    24    1
     6    23    25   ar
     7    25    26   ar
     8    26    17    1
     9    17    18    2
    10    17    19   am
    11    19    16    1
    12    16     1    1
    13     1     2    1
    14     2     3    1
    15     3     4    1
    16     4     5    1
    17     5     8    1
    18     8     9   ar
    19     9    10   ar
    20    10    11   ar
    21    11    12   ar
    22    12    13    1
    23    12    14   ar
    24    14    15    1
    25     5     6    1
    26     6     7    1
    27    26    27   ar
    28    27    21   ar
    29     7     2    1
    30    14     8   ar
    31    19    20    1
