@<TRIPOS>MOLECULE
*****
 30 32 0 0 0
SMALL
GASTEIGER

@<TRIPOS>ATOM
      1 C         140.4256  144.9646  160.3850 C.ar    1  UNL1        0.2181
      2 N         141.9093  144.8144  160.5455 N.ar    1  UNL1       -0.1986
      3 C         142.4684  144.1589  161.7734 C.ar    1  UNL1        0.1388
      4 C         141.5436  143.6536  162.8409 C.ar    1  UNL1        0.0786
      5 S         141.8014  142.9699  164.1508 S.2     1  UNL1       -0.0826
      6 C         140.4768  142.6975  164.8000 C.ar    1  UNL1        0.0311
      7 C         139.4005  143.2130  163.8912 C.ar    1  UNL1        0.0263
      8 C         140.0598  143.8039  162.6804 C.ar    1  UNL1        0.0933
      9 N         139.5008  144.4594  161.4525 N.ar    1  UNL1       -0.2132
     10 C         140.2656  142.0273  166.1252 C.ar    1  UNL1        0.0060
     11 C         140.5903  142.7571  167.3949 C.ar    1  UNL1        0.0004
     12 C         140.3791  142.0868  168.7201 C.ar    1  UNL1        0.0039
     13 C         139.8432  140.6869  168.7757 C.ar    1  UNL1        0.0714
     14 C         139.5185  139.9572  167.5061 C.ar    1  UNL1        0.0039
     15 C         139.7297  140.6274  166.1808 C.ar    1  UNL1        0.0004
     16 C         139.6320  140.0168  170.1010 C.3     1  UNL1        0.4186
     17 F         139.4209  139.3466  171.4262 F       1  UNL1       -0.1659
     18 F         138.2727  140.6429  170.2010 F       1  UNL1       -0.1659
     19 F         140.9915  139.3906  170.0009 F       1  UNL1       -0.1659
     20 C         140.2526  145.1183  157.7973 C.3     1  UNL1        0.1108
     21 N         139.8665  145.6202  159.1571 N.pl3   1  UNL1       -0.3013
     22 H         139.2461  146.3797  159.2437 H       1  UNL1        0.1497
     23 N         143.9523  144.0087  161.9338 N.pl3   1  UNL1       -0.3176
     24 H         144.4816  144.7405  162.3255 H       1  UNL1        0.1482
     25 C         144.6295  142.7434  161.4975 C.3     1  UNL1        0.0896
     26 C         145.1582  141.7840  162.5222 C.3     1  UNL1        0.0385
     27 C         144.3976  140.5306  162.8390 C.3     1  UNL1        0.0739
     28 N         143.5198  139.9024  161.7974 N.3     1  UNL1       -0.2703
     29 C         144.1295  139.0927  160.6917 C.3     1  UNL1        0.0897
     30 C         142.0322  140.0839  161.8617 C.3     1  UNL1        0.0897
@<TRIPOS>BOND
     1    20    21    1
     2    21     1    1
     3     1     2   ar
     4     2     3   ar
     5     3    23    1
     6    23    25    1
     7    25    26    1
     8    26    27    1
     9    27    28    1
    10    28    29    1
    11    28    30    1
    12     3     4   ar
    13     4     5   ar
    14     5     6   ar
    15     6    10    1
    16    10    11   ar
    17    11    12   ar
    18    12    13   ar
    19    13    16    1
    20    16    17    1
    21    16    18    1
    22    16    19    1
    23    13    14   ar
    24    14    15   ar
    25     6     7   ar
    26     7     8   ar
    27     8     9   ar
    28     9     1   ar
    29     8     4   ar
    30    15    10   ar
    31    21    22    1
    32    23    24    1
@<TRIPOS>MOLECULE
*****
 30 32 0 0 0
SMALL
GASTEIGER

@<TRIPOS>ATOM
      1 C         143.9234  142.3550  159.3078 C.ar    1  UNL1        0.2181
      2 N         143.1195  143.5999  159.5398 N.ar    1  UNL1       -0.1986
      3 C         142.6182  143.9235  160.9161 C.ar    1  UNL1        0.1388
      4 C         142.9208  143.0020  162.0603 C.ar    1  UNL1        0.0786
      5 S         142.5634  143.0585  163.5160 S.2     1  UNL1       -0.0826
      6 C         143.1464  141.8484  164.1837 C.ar    1  UNL1        0.0311
      7 C         143.8642  141.0441  163.1407 C.ar    1  UNL1        0.0263
      8 C         143.7248  141.7571  161.8283 C.ar    1  UNL1        0.0933
      9 N         144.2260  141.4336  160.4521 N.ar    1  UNL1       -0.2132
     10 C         143.0317  141.5032  165.6389 C.ar    1  UNL1        0.0060
     11 C         143.2958  142.5494  166.6810 C.ar    1  UNL1        0.0004
     12 C         143.1811  142.2041  168.1362 C.ar    1  UNL1        0.0039
     13 C         142.8024  140.8127  168.5494 C.ar    1  UNL1        0.0714
     14 C         142.5383  139.7666  167.5074 C.ar    1  UNL1        0.0039
     15 C         142.6530  140.1119  166.0521 C.ar    1  UNL1        0.0004
     16 C         142.6877  140.4675  170.0046 C.3     1  UNL1        0.4186
     17 F         142.5731  140.1224  171.4598 F       1  UNL1       -0.1659
     18 F         142.2960  139.0659  169.6413 F       1  UNL1       -0.1659
     19 F         143.0794  141.8692  170.3679 F       1  UNL1       -0.1659
     20 C         145.8020  142.4561  157.5160 C.3     1  UNL1        0.1108
     21 N         144.4247  142.0314  157.9316 N.pl3   1  UNL1       -0.3013
     22 H         143.8497  141.5403  157.3011 H       1  UNL1        0.1497
     23 N         141.8142  145.1685  161.1479 N.pl3   1  UNL1       -0.3176
     24 H         142.2686  146.0357  161.2510 H       1  UNL1        0.1482
     25 C         140.3181  145.0920  161.2228 C.3     1  UNL1        0.0896
     26 C         139.6136  145.4205  162.5057 C.3     1  UNL1        0.0385
     27 C         138.3862  144.6560  162.9043 C.3     1  UNL1        0.0739
     28 N         138.2813  144.0708  164.2815 N.3     1  UNL1       -0.2703
     29 C         137.8223  142.6542  164.4615 C.3     1  UNL1        0.0897
     30 C         138.6355  144.9023  165.4786 C.3     1  UNL1        0.0897
@<TRIPOS>BOND
     1    20    21    1
     2    21     1    1
     3     1     2   ar
     4     2     3   ar
     5     3    23    1
     6    23    25    1
     7    25    26    1
     8    26    27    1
     9    27    28    1
    10    28    29    1
    11    28    30    1
    12     3     4   ar
    13     4     5   ar
    14     5     6   ar
    15     6    10    1
    16    10    11   ar
    17    11    12   ar
    18    12    13   ar
    19    13    16    1
    20    16    17    1
    21    16    18    1
    22    16    19    1
    23    13    14   ar
    24    14    15   ar
    25     6     7   ar
    26     7     8   ar
    27     8     9   ar
    28     9     1   ar
    29     8     4   ar
    30    15    10   ar
    31    21    22    1
    32    23    24    1
@<TRIPOS>MOLECULE
*****
 30 32 0 0 0
SMALL
GASTEIGER

@<TRIPOS>ATOM
      1 C         141.8806  144.2426  159.5646 C.ar    1  UNL1        0.2181
      2 N         140.4423  143.8180  159.5912 N.ar    1  UNL1       -0.1986
      3 C         139.8183  143.3625  160.8771 C.ar    1  UNL1        0.1388
      4 C         140.6329  143.3317  162.1362 C.ar    1  UNL1        0.0786
      5 S         140.2930  142.9335  163.5419 S.2     1  UNL1       -0.0826
      6 C         141.5214  143.1121  164.3840 C.ar    1  UNL1        0.0311
      7 C         142.6204  143.6206  163.4988 C.ar    1  UNL1        0.0263
      8 C         142.0713  143.7564  162.1096 C.ar    1  UNL1        0.0933
      9 N         142.6951  144.2118  160.8238 N.ar    1  UNL1       -0.2132
     10 C         141.6315  142.8314  165.8534 C.ar    1  UNL1        0.0060
     11 C         140.4198  142.9412  166.7308 C.ar    1  UNL1        0.0004
     12 C         140.5300  142.6605  168.2002 C.ar    1  UNL1        0.0039
     13 C         141.8517  142.2699  168.7922 C.ar    1  UNL1        0.0714
     14 C         143.0634  142.1600  167.9148 C.ar    1  UNL1        0.0039
     15 C         142.9532  142.4408  166.4454 C.ar    1  UNL1        0.0004
     16 C         141.9618  141.9892  170.2616 C.3     1  UNL1        0.4186
     17 F         142.0719  141.7085  171.7309 F       1  UNL1       -0.1659
     18 F         140.6298  142.6414  170.4860 F       1  UNL1       -0.1659
     19 F         143.2939  141.3370  170.0371 F       1  UNL1       -0.1659
     20 C         141.9703  145.9094  157.5737 C.3     1  UNL1        0.1108
     21 N         142.5046  144.6980  158.2787 N.pl3   1  UNL1       -0.3013
     22 H         143.2647  144.2019  157.8976 H       1  UNL1        0.1497
     23 N         138.3799  142.9379  160.9036 N.pl3   1  UNL1       -0.3176
     24 H         137.6679  143.6149  160.9662 H       1  UNL1        0.1482
     25 C         138.0264  141.4818  160.8348 C.3     1  UNL1        0.0896
     26 C         137.6239  140.7482  162.0798 C.3     1  UNL1        0.0385
     27 C         138.3387  139.4895  162.4728 C.3     1  UNL1        0.0739
     28 N         138.5178  139.1501  163.9230 N.3     1  UNL1       -0.2703
     29 C         139.0165  137.7922  164.3194 C.3     1  UNL1        0.0897
     30 C         138.1982  140.1689  164.9766 C.3     1  UNL1        0.0897
@<TRIPOS>BOND
     1    20    21    1
     2    21     1    1
     3     1     2   ar
     4     2     3   ar
     5     3    23    1
     6    23    25    1
     7    25    26    1
     8    26    27    1
     9    27    28    1
    10    28    29    1
    11    28    30    1
    12     3     4   ar
    13     4     5   ar
    14     5     6   ar
    15     6    10    1
    16    10    11   ar
    17    11    12   ar
    18    12    13   ar
    19    13    16    1
    20    16    17    1
    21    16    18    1
    22    16    19    1
    23    13    14   ar
    24    14    15   ar
    25     6     7   ar
    26     7     8   ar
    27     8     9   ar
    28     9     1   ar
    29     8     4   ar
    30    15    10   ar
    31    21    22    1
    32    23    24    1
@<TRIPOS>MOLECULE
*****
 30 32 0 0 0
SMALL
GASTEIGER

@<TRIPOS>ATOM
      1 C         143.7712  142.6955  159.4771 C.ar    1  UNL1        0.2181
      2 N         144.1931  141.2872  159.7742 N.ar    1  UNL1       -0.1986
      3 C         143.9499  140.7023  161.1340 C.ar    1  UNL1        0.1388
      4 C         143.2846  141.5260  162.1965 C.ar    1  UNL1        0.0786
      5 S         142.9162  141.2219  163.6184 S.2     1  UNL1       -0.0826
      6 C         142.2665  142.4424  164.2000 C.ar    1  UNL1        0.0311
      7 C         142.2334  143.5008  163.1376 C.ar    1  UNL1        0.0263
      8 C         142.8627  142.9344  161.8993 C.ar    1  UNL1        0.0933
      9 N         143.1059  143.5192  160.5396 N.ar    1  UNL1       -0.2132
     10 C         141.7420  142.5803  165.5985 C.ar    1  UNL1        0.0060
     11 C         142.5869  142.1533  166.7620 C.ar    1  UNL1        0.0004
     12 C         142.0623  142.2912  168.1605 C.ar    1  UNL1        0.0039
     13 C         140.6928  142.8562  168.3956 C.ar    1  UNL1        0.0714
     14 C         139.8478  143.2832  167.2321 C.ar    1  UNL1        0.0039
     15 C         140.3725  143.1452  165.8336 C.ar    1  UNL1        0.0004
     16 C         140.1683  142.9941  169.7941 C.3     1  UNL1        0.4186
     17 F         139.6438  143.1320  171.1925 F       1  UNL1       -0.1659
     18 F         140.8178  144.3416  169.9048 F       1  UNL1       -0.1659
     19 F         139.5187  141.6465  169.6833 F       1  UNL1       -0.1659
     20 C         144.5285  142.4112  157.0081 C.3     1  UNL1        0.1108
     21 N         144.0144  143.2804  158.1173 N.pl3   1  UNL1       -0.3013
     22 H         143.8366  144.2346  157.9529 H       1  UNL1        0.1497
     23 N         144.3719  139.2939  161.4310 N.pl3   1  UNL1       -0.3176
     24 H         145.0510  139.1188  162.1220 H       1  UNL1        0.1482
     25 C         143.7592  138.1522  160.6754 C.3     1  UNL1        0.0896
     26 C         142.2728  137.9516  160.6949 C.3     1  UNL1        0.0385
     27 C         141.5323  137.9577  161.9994 C.3     1  UNL1        0.0739
     28 N         140.0323  137.9677  162.0104 N.3     1  UNL1       -0.2703
     29 C         139.2897  137.6803  163.2815 C.3     1  UNL1        0.0897
     30 C         139.2751  138.2650  160.7502 C.3     1  UNL1        0.0897
@<TRIPOS>BOND
     1    20    21    1
     2    21     1    1
     3     1     2   ar
     4     2     3   ar
     5     3    23    1
     6    23    25    1
     7    25    26    1
     8    26    27    1
     9    27    28    1
    10    28    29    1
    11    28    30    1
    12     3     4   ar
    13     4     5   ar
    14     5     6   ar
    15     6    10    1
    16    10    11   ar
    17    11    12   ar
    18    12    13   ar
    19    13    16    1
    20    16    17    1
    21    16    18    1
    22    16    19    1
    23    13    14   ar
    24    14    15   ar
    25     6     7   ar
    26     7     8   ar
    27     8     9   ar
    28     9     1   ar
    29     8     4   ar
    30    15    10   ar
    31    21    22    1
    32    23    24    1
@<TRIPOS>MOLECULE
*****
 30 32 0 0 0
SMALL
GASTEIGER

@<TRIPOS>ATOM
      1 C         137.7590  140.7641  158.8539 C.ar    1  UNL1        0.2181
      2 N         138.3463  142.1398  158.9649 N.ar    1  UNL1       -0.1986
      3 C         138.8236  142.6466  160.2937 C.ar    1  UNL1        0.1388
      4 C         138.7135  141.7775  161.5113 C.ar    1  UNL1        0.0786
      5 S         139.0967  142.0037  162.9438 S.2     1  UNL1       -0.0826
      6 C         138.7462  140.7677  163.7180 C.ar    1  UNL1        0.0311
      7 C         138.1464  139.7776  162.7640 C.ar    1  UNL1        0.0263
      8 C         138.1262  140.4017  161.4002 C.ar    1  UNL1        0.0933
      9 N         137.6489  139.8950  160.0715 N.ar    1  UNL1       -0.2132
     10 C         138.9582  140.5584  165.1881 C.ar    1  UNL1        0.0060
     11 C         139.8834  141.4616  165.9485 C.ar    1  UNL1        0.0004
     12 C         140.0954  141.2523  167.4186 C.ar    1  UNL1        0.0039
     13 C         139.3822  140.1399  168.1284 C.ar    1  UNL1        0.0714
     14 C         138.4570  139.2366  167.3680 C.ar    1  UNL1        0.0039
     15 C         138.2450  139.4460  165.8979 C.ar    1  UNL1        0.0004
     16 C         139.5942  139.9306  169.5985 C.3     1  UNL1        0.4186
     17 F         139.8062  139.7214  171.0686 F       1  UNL1       -0.1659
     18 F         141.0750  139.8486  169.3733 F       1  UNL1       -0.1659
     19 F         138.1135  140.0127  169.8237 F       1  UNL1       -0.1659
     20 C         136.8205  141.2244  156.4753 C.3     1  UNL1        0.1108
     21 N         137.2816  140.2573  157.5251 N.pl3   1  UNL1       -0.3013
     22 H         137.2710  139.2901  157.3421 H       1  UNL1        0.1497
     23 N         139.4109  144.0224  160.4047 N.pl3   1  UNL1       -0.3176
     24 H         138.9388  144.7194  160.9150 H       1  UNL1        0.1482
     25 C         140.7176  144.3360  159.7382 C.3     1  UNL1        0.0896
     26 C         141.9339  143.5150  160.0487 C.3     1  UNL1        0.0385
     27 C         142.2982  143.2234  161.4742 C.3     1  UNL1        0.0739
     28 N         143.6917  143.4889  161.9617 N.3     1  UNL1       -0.2703
     29 C         143.9615  144.6584  162.8614 C.3     1  UNL1        0.0897
     30 C         144.8154  142.5849  161.5495 C.3     1  UNL1        0.0897
@<TRIPOS>BOND
     1    20    21    1
     2    21     1    1
     3     1     2   ar
     4     2     3   ar
     5     3    23    1
     6    23    25    1
     7    25    26    1
     8    26    27    1
     9    27    28    1
    10    28    29    1
    11    28    30    1
    12     3     4   ar
    13     4     5   ar
    14     5     6   ar
    15     6    10    1
    16    10    11   ar
    17    11    12   ar
    18    12    13   ar
    19    13    16    1
    20    16    17    1
    21    16    18    1
    22    16    19    1
    23    13    14   ar
    24    14    15   ar
    25     6     7   ar
    26     7     8   ar
    27     8     9   ar
    28     9     1   ar
    29     8     4   ar
    30    15    10   ar
    31    21    22    1
    32    23    24    1
@<TRIPOS>MOLECULE
*****
 30 32 0 0 0
SMALL
GASTEIGER

@<TRIPOS>ATOM
      1 C         138.1630  140.0589  159.6603 C.ar    1  UNL1        0.2181
      2 N         139.3417  139.1312  159.6627 N.ar    1  UNL1       -0.1986
      3 C         140.1374  138.9327  160.9187 C.ar    1  UNL1        0.1388
      4 C         139.7542  139.6619  162.1723 C.ar    1  UNL1        0.0786
      5 S         140.3450  139.6666  163.5510 S.2     1  UNL1       -0.0826
      6 C         139.5314  140.5972  164.4007 C.ar    1  UNL1        0.0311
      7 C         138.4378  141.1677  163.5471 C.ar    1  UNL1        0.0263
      8 C         138.5755  140.5896  162.1698 C.ar    1  UNL1        0.0933
      9 N         137.7799  140.7881  160.9138 N.ar    1  UNL1       -0.2132
     10 C         139.7695  140.9037  165.8496 C.ar    1  UNL1        0.0060
     11 C         140.4198  142.1960  166.2459 C.ar    1  UNL1        0.0004
     12 C         140.6580  142.5023  167.6949 C.ar    1  UNL1        0.0039
     13 C         140.2458  141.5164  168.7475 C.ar    1  UNL1        0.0714
     14 C         139.5955  140.2241  168.3513 C.ar    1  UNL1        0.0039
     15 C         139.3574  139.9178  166.9023 C.ar    1  UNL1        0.0004
     16 C         140.4840  141.8229  170.1965 C.3     1  UNL1        0.4186
     17 F         140.7221  142.1292  171.6453 F       1  UNL1       -0.1659
     18 F         140.4349  143.2912  169.8940 F       1  UNL1       -0.1659
     19 F         140.5330  140.3544  170.4989 F       1  UNL1       -0.1659
     20 C         137.6952  141.3926  157.4803 C.3     1  UNL1        0.1108
     21 N         137.3673  140.2574  158.4042 N.pl3   1  UNL1       -0.3013
     22 H         136.6299  139.6426  158.1863 H       1  UNL1        0.1497
     23 N         141.3161  138.0050  160.9211 N.pl3   1  UNL1       -0.3176
     24 H         141.1945  137.0552  161.1496 H       1  UNL1        0.1482
     25 C         142.6801  138.5245  160.5752 C.3     1  UNL1        0.0896
     26 C         143.6970  138.7400  161.6566 C.3     1  UNL1        0.0385
     27 C         144.2742  140.1060  161.8820 C.3     1  UNL1        0.0739
     28 N         144.8786  140.4552  163.2097 N.3     1  UNL1       -0.2703
     29 C         145.6034  141.7568  163.3847 C.3     1  UNL1        0.0897
     30 C         144.7582  139.5029  164.3623 C.3     1  UNL1        0.0897
@<TRIPOS>BOND
     1    20    21    1
     2    21     1    1
     3     1     2   ar
     4     2     3   ar
     5     3    23    1
     6    23    25    1
     7    25    26    1
     8    26    27    1
     9    27    28    1
    10    28    29    1
    11    28    30    1
    12     3     4   ar
    13     4     5   ar
    14     5     6   ar
    15     6    10    1
    16    10    11   ar
    17    11    12   ar
    18    12    13   ar
    19    13    16    1
    20    16    17    1
    21    16    18    1
    22    16    19    1
    23    13    14   ar
    24    14    15   ar
    25     6     7   ar
    26     7     8   ar
    27     8     9   ar
    28     9     1   ar
    29     8     4   ar
    30    15    10   ar
    31    21    22    1
    32    23    24    1
@<TRIPOS>MOLECULE
*****
 30 32 0 0 0
SMALL
GASTEIGER

@<TRIPOS>ATOM
      1 C         141.7955  144.3608  159.4709 C.ar    1  UNL1        0.2181
      2 N         141.5333  142.8976  159.2706 N.ar    1  UNL1       -0.1986
      3 C         141.4326  141.9844  160.4564 C.ar    1  UNL1        0.1388
      4 C         141.5943  142.5346  161.8425 C.ar    1  UNL1        0.0786
      5 S         141.5468  141.8830  163.1928 S.2     1  UNL1       -0.0826
      6 C         141.7797  142.9437  164.2276 C.ar    1  UNL1        0.0311
      7 C         141.9712  144.2507  163.5168 C.ar    1  UNL1        0.0263
      8 C         141.8566  143.9978  162.0427 C.ar    1  UNL1        0.0933
      9 N         141.9572  144.9109  160.8570 N.ar    1  UNL1       -0.2132
     10 C         141.8150  142.7341  165.7124 C.ar    1  UNL1        0.0060
     11 C         140.5545  142.8527  166.5168 C.ar    1  UNL1        0.0004
     12 C         140.5898  142.6431  168.0017 C.ar    1  UNL1        0.0039
     13 C         141.8856  142.3150  168.6822 C.ar    1  UNL1        0.0714
     14 C         143.1462  142.1964  167.8779 C.ar    1  UNL1        0.0039
     15 C         143.1108  142.4060  166.3930 C.ar    1  UNL1        0.0004
     16 C         141.9209  142.1054  170.1671 C.3     1  UNL1        0.4186
     17 F         141.9562  141.8959  171.6519 F       1  UNL1       -0.1659
     18 F         140.4761  142.4986  170.2569 F       1  UNL1       -0.1659
     19 F         143.3657  141.7123  170.0772 F       1  UNL1       -0.1659
     20 C         140.6564  145.8830  157.7003 C.3     1  UNL1        0.1108
     21 N         141.8962  145.2740  158.2851 N.pl3   1  UNL1       -0.3013
     22 H         142.7759  145.4735  157.8907 H       1  UNL1        0.1497
     23 N         141.1703  140.5211  160.2561 N.pl3   1  UNL1       -0.3176
     24 H         141.9237  139.8937  160.1669 H       1  UNL1        0.1482
     25 C         139.7602  140.0139  160.1915 C.3     1  UNL1        0.0896
     26 C         138.6130  140.9617  160.3803 C.3     1  UNL1        0.0385
     27 C         137.7345  140.8443  161.5905 C.3     1  UNL1        0.0739
     28 N         137.8767  141.8230  162.7183 N.3     1  UNL1       -0.2703
     29 C         137.9536  141.3309  164.1332 C.3     1  UNL1        0.0897
     30 C         137.9419  143.2938  162.4312 C.3     1  UNL1        0.0897
@<TRIPOS>BOND
     1    20    21    1
     2    21     1    1
     3     1     2   ar
     4     2     3   ar
     5     3    23    1
     6    23    25    1
     7    25    26    1
     8    26    27    1
     9    27    28    1
    10    28    29    1
    11    28    30    1
    12     3     4   ar
    13     4     5   ar
    14     5     6   ar
    15     6    10    1
    16    10    11   ar
    17    11    12   ar
    18    12    13   ar
    19    13    16    1
    20    16    17    1
    21    16    18    1
    22    16    19    1
    23    13    14   ar
    24    14    15   ar
    25     6     7   ar
    26     7     8   ar
    27     8     9   ar
    28     9     1   ar
    29     8     4   ar
    30    15    10   ar
    31    21    22    1
    32    23    24    1
@<TRIPOS>MOLECULE
*****
 30 32 0 0 0
SMALL
GASTEIGER

@<TRIPOS>ATOM
      1 C         142.8436  139.1535  159.5312 C.ar    1  UNL1        0.2181
      2 N         141.3741  138.9154  159.3476 N.ar    1  UNL1       -0.1986
      3 C         140.4587  138.9233  160.5359 C.ar    1  UNL1        0.1388
      4 C         141.0129  139.1693  161.9079 C.ar    1  UNL1        0.0786
      5 S         140.3605  139.2351  163.2569 S.2     1  UNL1       -0.0826
      6 C         141.4269  139.5139  164.2744 C.ar    1  UNL1        0.0311
      7 C         142.7383  139.6204  163.5541 C.ar    1  UNL1        0.0263
      8 C         142.4825  139.4074  162.0915 C.ar    1  UNL1        0.0933
      9 N         143.3978  139.3995  160.9032 N.ar    1  UNL1       -0.2132
     10 C         141.2184  139.6605  165.7526 C.ar    1  UNL1        0.0060
     11 C         139.8339  139.8421  166.3004 C.ar    1  UNL1        0.0004
     12 C         139.6255  139.9887  167.7786 C.ar    1  UNL1        0.0039
     13 C         140.8016  139.9536  168.7090 C.ar    1  UNL1        0.0714
     14 C         142.1861  139.7720  168.1612 C.ar    1  UNL1        0.0039
     15 C         142.3945  139.6254  166.6829 C.ar    1  UNL1        0.0004
     16 C         140.5931  140.1002  170.1872 C.3     1  UNL1        0.4186
     17 F         140.3847  140.2468  171.6653 F       1  UNL1       -0.1659
     18 F         139.5581  141.1565  169.9365 F       1  UNL1       -0.1659
     19 F         141.6282  139.0439  170.4378 F       1  UNL1       -0.1659
     20 C         143.1902  139.2300  156.9575 C.3     1  UNL1        0.1108
     21 N         143.7590  139.1456  158.3429 N.pl3   1  UNL1       -0.3013
     22 H         144.7331  139.0851  158.4722 H       1  UNL1        0.1497
     23 N         138.9891  138.6852  160.3522 N.pl3   1  UNL1       -0.3176
     24 H         138.6358  137.7663  160.3504 H       1  UNL1        0.1482
     25 C         138.0580  139.8471  160.1711 C.3     1  UNL1        0.0896
     26 C         137.6157  140.6462  161.3610 C.3     1  UNL1        0.0385
     27 C         138.1207  142.0453  161.5546 C.3     1  UNL1        0.0739
     28 N         137.9092  142.7446  162.8647 N.3     1  UNL1       -0.2703
     29 C         137.7818  141.9469  164.1286 C.3     1  UNL1        0.0897
     30 C         137.8252  144.2415  162.9108 C.3     1  UNL1        0.0897
@<TRIPOS>BOND
     1    20    21    1
     2    21     1    1
     3     1     2   ar
     4     2     3   ar
     5     3    23    1
     6    23    25    1
     7    25    26    1
     8    26    27    1
     9    27    28    1
    10    28    29    1
    11    28    30    1
    12     3     4   ar
    13     4     5   ar
    14     5     6   ar
    15     6    10    1
    16    10    11   ar
    17    11    12   ar
    18    12    13   ar
    19    13    16    1
    20    16    17    1
    21    16    18    1
    22    16    19    1
    23    13    14   ar
    24    14    15   ar
    25     6     7   ar
    26     7     8   ar
    27     8     9   ar
    28     9     1   ar
    29     8     4   ar
    30    15    10   ar
    31    21    22    1
    32    23    24    1
@<TRIPOS>MOLECULE
*****
 30 32 0 0 0
SMALL
GASTEIGER

@<TRIPOS>ATOM
      1 C         139.9030  140.7304  168.8081 C.ar    1  UNL1        0.2181
      2 N         139.1431  139.6592  168.0837 N.ar    1  UNL1       -0.1986
      3 C         138.9460  139.7524  166.5996 C.ar    1  UNL1        0.1388
      4 C         139.5089  140.9169  165.8400 C.ar    1  UNL1        0.0786
      5 S         139.4749  141.2765  164.3841 S.2     1  UNL1       -0.0826
      6 C         140.2139  142.5700  164.2088 C.ar    1  UNL1        0.0311
      7 C         140.7046  143.0099  165.5563 C.ar    1  UNL1        0.0263
      8 C         140.2688  141.9882  166.5644 C.ar    1  UNL1        0.0933
      9 N         140.4659  141.8950  168.0485 N.ar    1  UNL1       -0.2132
     10 C         140.4251  143.2962  162.9134 C.ar    1  UNL1        0.0060
     11 C         139.8830  144.6833  162.7341 C.ar    1  UNL1        0.0004
     12 C         140.0943  145.4094  161.4387 C.ar    1  UNL1        0.0039
     13 C         140.8476  144.7485  160.3225 C.ar    1  UNL1        0.0714
     14 C         141.3896  143.3614  160.5018 C.ar    1  UNL1        0.0039
     15 C         141.1783  142.6353  161.7973 C.ar    1  UNL1        0.0004
     16 C         141.0588  145.4747  159.0272 C.3     1  UNL1        0.4186
     17 F         141.2700  146.2009  157.7318 F       1  UNL1       -0.1659
     18 F         142.3350  144.7168  158.8104 F       1  UNL1       -0.1659
     19 F         139.7826  146.2326  159.2440 F       1  UNL1       -0.1659
     20 C         140.9870  141.6224  170.9943 C.3     1  UNL1        0.1108
     21 N         140.1001  140.6372  170.2922 N.pl3   1  UNL1       -0.3013
     22 H         139.6474  139.9295  170.8055 H       1  UNL1        0.1497
     23 N         138.1860  138.6811  165.8752 N.pl3   1  UNL1       -0.3176
     24 H         137.2057  138.7365  165.8024 H       1  UNL1        0.1482
     25 C         138.9195  137.5254  165.2617 C.3     1  UNL1        0.0896
     26 C         140.3466  137.6875  164.8293 C.3     1  UNL1        0.0385
     27 C         140.8574  136.9399  163.6333 C.3     1  UNL1        0.0739
     28 N         140.8271  137.5822  162.2781 N.3     1  UNL1       -0.2703
     29 C         142.1036  137.7925  161.5191 C.3     1  UNL1        0.0897
     30 C         139.5202  138.0142  161.6820 C.3     1  UNL1        0.0897
@<TRIPOS>BOND
     1    20    21    1
     2    21     1    1
     3     1     2   ar
     4     2     3   ar
     5     3    23    1
     6    23    25    1
     7    25    26    1
     8    26    27    1
     9    27    28    1
    10    28    29    1
    11    28    30    1
    12     3     4   ar
    13     4     5   ar
    14     5     6   ar
    15     6    10    1
    16    10    11   ar
    17    11    12   ar
    18    12    13   ar
    19    13    16    1
    20    16    17    1
    21    16    18    1
    22    16    19    1
    23    13    14   ar
    24    14    15   ar
    25     6     7   ar
    26     7     8   ar
    27     8     9   ar
    28     9     1   ar
    29     8     4   ar
    30    15    10   ar
    31    21    22    1
    32    23    24    1
