@<TRIPOS>MOLECULE
*****
 26 28 0 0 0
SMALL
GASTEIGER

@<TRIPOS>ATOM
      1 O         137.6851  142.2507  161.7778 O.2     1  UNL1       -0.2749
      2 C         138.3361  142.3388  163.1263 C.2     1  UNL1        0.2257
      3 C         138.3854  141.1319  164.0156 C.3     1  UNL1        0.0857
      4 C         139.0364  141.2199  165.3641 C.3     1  UNL1        0.0151
      5 C         139.6381  142.5149  165.8233 C.3     1  UNL1        0.0223
      6 C         139.5889  143.7218  164.9340 C.3     1  UNL1        0.0935
      7 N         138.9378  143.6337  163.5855 N.am    1  UNL1       -0.2767
      8 C         139.0856  140.0129  166.2535 C.3     1  UNL1        0.0269
      9 C         140.1947  139.8619  167.2520 C.ar    1  UNL1       -0.0222
     10 C         139.9245  140.0784  168.7116 C.ar    1  UNL1       -0.0043
     11 C         141.0335  139.9273  169.7101 C.ar    1  UNL1       -0.0003
     12 C         142.4129  139.5597  169.2491 C.ar    1  UNL1       -0.0000
     13 C         142.6830  139.3432  167.7897 C.ar    1  UNL1       -0.0003
     14 C         141.5740  139.4943  166.7911 C.ar    1  UNL1       -0.0043
     15 C         138.8886  144.8407  162.6962 C.3     1  UNL1        0.1270
     16 C         140.1430  145.6104  162.4063 C.3     1  UNL1        0.1525
     17 O         140.0851  147.0984  162.2258 O.3     1  UNL1       -0.3783
     18 H         140.9761  147.4372  162.0464 H       1  UNL1        0.2109
     19 C         141.4553  144.8922  162.2970 C.ar    1  UNL1        0.0061
     20 C         141.7045  143.9554  161.1523 C.ar    1  UNL1        0.0012
     21 C         143.0167  143.2371  161.0429 C.ar    1  UNL1        0.0364
     22 C         144.0799  143.4557  162.0781 C.ar    1  UNL1        0.1337
     23 O         145.3922  142.7374  161.9688 O.3     1  UNL1       -0.5055
     24 C         143.8308  144.3925  163.2229 C.ar    1  UNL1        0.0364
     25 C         142.5185  145.1107  163.3323 C.ar    1  UNL1        0.0012
     26 H         145.5479  142.1522  161.2537 H       1  UNL1        0.2922
@<TRIPOS>BOND
     1     1     2    2
     2     2     3    1
     3     3     4    1
     4     4     8    1
     5     8     9    1
     6     9    10   ar
     7    10    11   ar
     8    11    12   ar
     9    12    13   ar
    10    13    14   ar
    11     4     5    1
    12     5     6    1
    13     6     7    1
    14     7    15    1
    15    15    16    1
    16    16    17    1
    17    16    19    1
    18    19    20   ar
    19    20    21   ar
    20    21    22   ar
    21    22    23    1
    22    22    24   ar
    23    24    25   ar
    24     7     2   am
    25    25    19   ar
    26    14     9   ar
    27    17    18    1
    28    23    26    1
@<TRIPOS>MOLECULE
*****
 26 28 0 0 0
SMALL
GASTEIGER

@<TRIPOS>ATOM
      1 O         137.5670  142.3249  162.0645 O.2     1  UNL1       -0.2749
      2 C         138.3112  142.3697  163.3661 C.2     1  UNL1        0.2257
      3 C         138.3873  141.1452  164.2291 C.3     1  UNL1        0.0857
      4 C         139.1316  141.1900  165.5307 C.3     1  UNL1        0.0151
      5 C         139.7998  142.4593  165.9693 C.3     1  UNL1        0.0223
      6 C         139.7237  143.6838  165.1063 C.3     1  UNL1        0.0935
      7 N         138.9794  143.6390  163.8047 N.am    1  UNL1       -0.2767
      8 C         139.2077  139.9654  166.3936 C.3     1  UNL1        0.0269
      9 C         140.0933  139.9549  167.6042 C.ar    1  UNL1       -0.0222
     10 C         141.5625  139.6905  167.4564 C.ar    1  UNL1       -0.0043
     11 C         142.4481  139.6800  168.6669 C.ar    1  UNL1       -0.0003
     12 C         141.8647  139.9338  170.0254 C.ar    1  UNL1       -0.0000
     13 C         140.3956  140.1981  170.1731 C.ar    1  UNL1       -0.0003
     14 C         139.5099  140.2086  168.9626 C.ar    1  UNL1       -0.0043
     15 C         138.9033  144.8636  162.9417 C.3     1  UNL1        0.1270
     16 C         140.1589  145.5862  162.5528 C.3     1  UNL1        0.1525
     17 O         140.1158  147.0545  162.2492 O.3     1  UNL1       -0.3783
     18 H         141.0057  147.3629  162.0168 H       1  UNL1        0.2109
     19 C         141.4577  144.8405  162.4675 C.ar    1  UNL1        0.0061
     20 C         142.5635  145.1473  163.4334 C.ar    1  UNL1        0.0012
     21 C         143.8622  144.4016  163.3481 C.ar    1  UNL1        0.0364
     22 C         144.0551  143.3492  162.2969 C.ar    1  UNL1        0.1337
     23 O         145.3539  142.6035  162.2116 O.3     1  UNL1       -0.5055
     24 C         142.9493  143.0424  161.3310 C.ar    1  UNL1        0.0364
     25 C         141.6506  143.7880  161.4162 C.ar    1  UNL1        0.0012
     26 H         146.0446  142.7951  162.8149 H       1  UNL1        0.2922
@<TRIPOS>BOND
     1     1     2    2
     2     2     3    1
     3     3     4    1
     4     4     8    1
     5     8     9    1
     6     9    10   ar
     7    10    11   ar
     8    11    12   ar
     9    12    13   ar
    10    13    14   ar
    11     4     5    1
    12     5     6    1
    13     6     7    1
    14     7    15    1
    15    15    16    1
    16    16    17    1
    17    16    19    1
    18    19    20   ar
    19    20    21   ar
    20    21    22   ar
    21    22    23    1
    22    22    24   ar
    23    24    25   ar
    24     7     2   am
    25    25    19   ar
    26    14     9   ar
    27    17    18    1
    28    23    26    1
@<TRIPOS>MOLECULE
*****
 26 28 0 0 0
SMALL
GASTEIGER

@<TRIPOS>ATOM
      1 O         143.7909  140.2498  162.2559 O.2     1  UNL1       -0.2749
      2 C         143.5938  140.7459  163.6577 C.2     1  UNL1        0.2257
      3 C         143.2239  139.7848  164.7483 C.3     1  UNL1        0.0857
      4 C         143.0268  140.2809  166.1501 C.3     1  UNL1        0.0151
      5 C         143.1996  141.7380  166.4613 C.3     1  UNL1        0.0223
      6 C         143.5695  142.6990  165.3707 C.3     1  UNL1        0.0935
      7 N         143.7666  142.2030  163.9689 N.am    1  UNL1       -0.2767
      8 C         142.6568  139.3197  167.2407 C.3     1  UNL1        0.0269
      9 C         141.8786  139.7986  168.4303 C.ar    1  UNL1       -0.0222
     10 C         140.3956  139.9983  168.3254 C.ar    1  UNL1       -0.0043
     11 C         139.6174  140.4772  169.5150 C.ar    1  UNL1       -0.0003
     12 C         140.3222  140.7563  170.8094 C.ar    1  UNL1       -0.0000
     13 C         141.8051  140.5566  170.9142 C.ar    1  UNL1       -0.0003
     14 C         142.5833  140.0777  169.7247 C.ar    1  UNL1       -0.0043
     15 C         144.1366  143.1641  162.8783 C.3     1  UNL1        0.1270
     16 C         143.4066  144.4680  162.7482 C.3     1  UNL1        0.1525
     17 O         144.1756  145.7533  162.6669 O.3     1  UNL1       -0.3783
     18 H         143.5567  146.4958  162.5864 H       1  UNL1        0.2109
     19 C         141.9074  144.4866  162.6993 C.ar    1  UNL1        0.0061
     20 C         141.1930  144.0871  161.4423 C.ar    1  UNL1        0.0012
     21 C         139.6940  144.1057  161.3934 C.ar    1  UNL1        0.0364
     22 C         138.9093  144.5237  162.6014 C.ar    1  UNL1        0.1337
     23 O         137.4102  144.5423  162.5526 O.3     1  UNL1       -0.5055
     24 C         139.6237  144.9232  163.8584 C.ar    1  UNL1        0.0364
     25 C         141.1228  144.9046  163.9074 C.ar    1  UNL1        0.0012
     26 H         136.9639  144.2928  161.7674 H       1  UNL1        0.2922
@<TRIPOS>BOND
     1     1     2    2
     2     2     3    1
     3     3     4    1
     4     4     8    1
     5     8     9    1
     6     9    10   ar
     7    10    11   ar
     8    11    12   ar
     9    12    13   ar
    10    13    14   ar
    11     4     5    1
    12     5     6    1
    13     6     7    1
    14     7    15    1
    15    15    16    1
    16    16    17    1
    17    16    19    1
    18    19    20   ar
    19    20    21   ar
    20    21    22   ar
    21    22    23    1
    22    22    24   ar
    23    24    25   ar
    24     7     2   am
    25    25    19   ar
    26    14     9   ar
    27    17    18    1
    28    23    26    1
@<TRIPOS>MOLECULE
*****
 26 28 0 0 0
SMALL
GASTEIGER

@<TRIPOS>ATOM
      1 O         137.7252  139.2304  165.8177 O.2     1  UNL1       -0.2749
      2 C         139.1517  139.1261  165.3659 C.2     1  UNL1        0.2257
      3 C         140.2640  139.2092  166.3688 C.3     1  UNL1        0.0857
      4 C         141.6906  139.1050  165.9170 C.3     1  UNL1        0.0151
      5 C         142.0048  138.9176  164.4623 C.3     1  UNL1        0.0223
      6 C         140.8925  138.8344  163.4594 C.3     1  UNL1        0.0935
      7 N         139.4659  138.9387  163.9112 N.am    1  UNL1       -0.2767
      8 C         142.8029  139.1881  166.9199 C.3     1  UNL1        0.0269
      9 C         142.6759  140.0960  168.1072 C.ar    1  UNL1       -0.0222
     10 C         142.4343  139.5187  169.4704 C.ar    1  UNL1       -0.0043
     11 C         142.3074  140.4267  170.6577 C.ar    1  UNL1       -0.0003
     12 C         142.4220  141.9119  170.4816 C.ar    1  UNL1       -0.0000
     13 C         142.6636  142.4892  169.1184 C.ar    1  UNL1       -0.0003
     14 C         142.7906  141.5812  167.9312 C.ar    1  UNL1       -0.0043
     15 C         138.3536  138.8556  162.9083 C.3     1  UNL1        0.1270
     16 C         137.8379  140.1035  162.2551 C.3     1  UNL1        0.1525
     17 O         136.8454  140.0083  161.1344 O.3     1  UNL1       -0.3783
     18 H         136.6177  140.8999  160.8275 H       1  UNL1        0.2109
     19 C         138.3146  141.4468  162.7226 C.ar    1  UNL1        0.0061
     20 C         137.5797  142.1647  163.8156 C.ar    1  UNL1        0.0012
     21 C         138.0563  143.5079  164.2831 C.ar    1  UNL1        0.0364
     22 C         139.2679  144.1331  163.6577 C.ar    1  UNL1        0.1337
     23 O         139.7446  145.4764  164.1253 O.3     1  UNL1       -0.5055
     24 C         140.0028  143.4152  162.5648 C.ar    1  UNL1        0.0364
     25 C         139.5261  142.0720  162.0973 C.ar    1  UNL1        0.0012
     26 H         139.2855  145.9248  164.8080 H       1  UNL1        0.2922
@<TRIPOS>BOND
     1     1     2    2
     2     2     3    1
     3     3     4    1
     4     4     8    1
     5     8     9    1
     6     9    10   ar
     7    10    11   ar
     8    11    12   ar
     9    12    13   ar
    10    13    14   ar
    11     4     5    1
    12     5     6    1
    13     6     7    1
    14     7    15    1
    15    15    16    1
    16    16    17    1
    17    16    19    1
    18    19    20   ar
    19    20    21   ar
    20    21    22   ar
    21    22    23    1
    22    22    24   ar
    23    24    25   ar
    24     7     2   am
    25    25    19   ar
    26    14     9   ar
    27    17    18    1
    28    23    26    1
@<TRIPOS>MOLECULE
*****
 26 28 0 0 0
SMALL
GASTEIGER

@<TRIPOS>ATOM
      1 O         139.6300  144.9809  164.0484 O.2     1  UNL1       -0.2749
      2 C         139.6237  143.4910  163.8745 C.2     1  UNL1        0.2257
      3 C         139.3792  142.5991  165.0555 C.3     1  UNL1        0.0857
      4 C         139.3729  141.1092  164.8816 C.3     1  UNL1        0.0151
      5 C         139.6112  140.5112  163.5268 C.3     1  UNL1        0.0223
      6 C         139.8557  141.4031  162.3458 C.3     1  UNL1        0.0935
      7 N         139.8620  142.8930  162.5197 N.am    1  UNL1       -0.2767
      8 C         139.1283  140.2173  166.0626 C.3     1  UNL1        0.0269
      9 C         140.2108  140.0052  167.0792 C.ar    1  UNL1       -0.0222
     10 C         141.6194  139.7480  166.6322 C.ar    1  UNL1       -0.0043
     11 C         142.7018  139.5359  167.6487 C.ar    1  UNL1       -0.0003
     12 C         142.3757  139.5810  169.1122 C.ar    1  UNL1       -0.0000
     13 C         140.9671  139.8383  169.5591 C.ar    1  UNL1       -0.0003
     14 C         139.8847  140.0504  168.5425 C.ar    1  UNL1       -0.0043
     15 C         140.1066  143.7849  161.3386 C.3     1  UNL1        0.1270
     16 C         141.4736  144.3537  161.0987 C.3     1  UNL1        0.1525
     17 O         141.6350  145.5951  160.2723 O.3     1  UNL1       -0.3783
     18 H         142.5754  145.8262  160.2162 H       1  UNL1        0.2109
     19 C         142.6794  143.6812  161.6852 C.ar    1  UNL1        0.0061
     20 C         143.3760  142.5930  160.9233 C.ar    1  UNL1        0.0012
     21 C         144.5817  141.9205  161.5098 C.ar    1  UNL1        0.0364
     22 C         145.0908  142.3361  162.8581 C.ar    1  UNL1        0.1337
     23 O         146.2965  141.6636  163.4446 O.3     1  UNL1       -0.5055
     24 C         144.3941  143.4243  163.6200 C.ar    1  UNL1        0.0364
     25 C         143.1884  144.0969  163.0336 C.ar    1  UNL1        0.0012
     26 H         146.7317  140.9839  162.9687 H       1  UNL1        0.2922
@<TRIPOS>BOND
     1     1     2    2
     2     2     3    1
     3     3     4    1
     4     4     8    1
     5     8     9    1
     6     9    10   ar
     7    10    11   ar
     8    11    12   ar
     9    12    13   ar
    10    13    14   ar
    11     4     5    1
    12     5     6    1
    13     6     7    1
    14     7    15    1
    15    15    16    1
    16    16    17    1
    17    16    19    1
    18    19    20   ar
    19    20    21   ar
    20    21    22   ar
    21    22    23    1
    22    22    24   ar
    23    24    25   ar
    24     7     2   am
    25    25    19   ar
    26    14     9   ar
    27    17    18    1
    28    23    26    1
@<TRIPOS>MOLECULE
*****
 26 28 0 0 0
SMALL
GASTEIGER

@<TRIPOS>ATOM
      1 O         142.8041  141.5074  160.8780 O.2     1  UNL1       -0.2749
      2 C         143.0026  141.2112  162.3350 C.2     1  UNL1        0.2257
      3 C         142.4205  139.9648  162.9331 C.3     1  UNL1        0.0857
      4 C         142.6190  139.6686  164.3901 C.3     1  UNL1        0.0151
      5 C         143.3995  140.6187  165.2490 C.3     1  UNL1        0.0223
      6 C         143.9816  141.8651  164.6510 C.3     1  UNL1        0.0935
      7 N         143.7831  142.1613  163.1940 N.am    1  UNL1       -0.2767
      8 C         142.0368  138.4221  164.9881 C.3     1  UNL1        0.0269
      9 C         140.6489  138.4406  165.5567 C.ar    1  UNL1       -0.0222
     10 C         140.2669  139.4797  166.5689 C.ar    1  UNL1       -0.0043
     11 C         138.8790  139.4982  167.1375 C.ar    1  UNL1       -0.0003
     12 C         137.8731  138.4775  166.6941 C.ar    1  UNL1       -0.0000
     13 C         138.2552  137.4385  165.6820 C.ar    1  UNL1       -0.0003
     14 C         139.6431  137.4200  165.1133 C.ar    1  UNL1       -0.0043
     15 C         144.3653  143.4078  162.5960 C.3     1  UNL1        0.1270
     16 C         143.6174  144.7046  162.6898 C.3     1  UNL1        0.1525
     17 O         144.3691  145.9963  162.8186 O.3     1  UNL1       -0.3783
     18 H         143.7400  146.7330  162.8671 H       1  UNL1        0.2109
     19 C         142.1178  144.7099  162.6547 C.ar    1  UNL1        0.0061
     20 C         141.3983  144.6847  161.3388 C.ar    1  UNL1        0.0012
     21 C         139.8987  144.6900  161.3036 C.ar    1  UNL1        0.0364
     22 C         139.1187  144.7204  162.5845 C.ar    1  UNL1        0.1337
     23 O         137.6190  144.7256  162.5494 O.3     1  UNL1       -0.5055
     24 C         139.8382  144.7455  163.9004 C.ar    1  UNL1        0.0364
     25 C         141.3377  144.7402  163.9355 C.ar    1  UNL1        0.0012
     26 H         137.1696  144.7099  161.7274 H       1  UNL1        0.2922
@<TRIPOS>BOND
     1     1     2    2
     2     2     3    1
     3     3     4    1
     4     4     8    1
     5     8     9    1
     6     9    10   ar
     7    10    11   ar
     8    11    12   ar
     9    12    13   ar
    10    13    14   ar
    11     4     5    1
    12     5     6    1
    13     6     7    1
    14     7    15    1
    15    15    16    1
    16    16    17    1
    17    16    19    1
    18    19    20   ar
    19    20    21   ar
    20    21    22   ar
    21    22    23    1
    22    22    24   ar
    23    24    25   ar
    24     7     2   am
    25    25    19   ar
    26    14     9   ar
    27    17    18    1
    28    23    26    1
@<TRIPOS>MOLECULE
*****
 26 28 0 0 0
SMALL
GASTEIGER

@<TRIPOS>ATOM
      1 O         137.6598  141.2574  162.5092 O.2     1  UNL1       -0.2749
      2 C         138.0688  140.0942  163.3634 C.2     1  UNL1        0.2257
      3 C         138.1101  140.2375  164.8559 C.3     1  UNL1        0.0857
      4 C         138.5191  139.0743  165.7101 C.3     1  UNL1        0.0151
      5 C         138.8869  137.7677  165.0717 C.3     1  UNL1        0.0223
      6 C         138.8457  137.6244  163.5791 C.3     1  UNL1        0.0935
      7 N         138.4367  138.7876  162.7250 N.am    1  UNL1       -0.2767
      8 C         138.5603  139.2176  167.2027 C.3     1  UNL1        0.0269
      9 C         139.7340  139.8809  167.8603 C.ar    1  UNL1       -0.0222
     10 C         141.0698  139.8899  167.1779 C.ar    1  UNL1       -0.0043
     11 C         142.2435  140.5532  167.8354 C.ar    1  UNL1       -0.0003
     12 C         142.0814  141.2076  169.1755 C.ar    1  UNL1       -0.0000
     13 C         140.7457  141.1986  169.8578 C.ar    1  UNL1       -0.0003
     14 C         139.5720  140.5353  169.2002 C.ar    1  UNL1       -0.0043
     15 C         138.3955  138.6442  161.2324 C.3     1  UNL1        0.1270
     16 C         139.6616  138.7427  160.4342 C.3     1  UNL1        0.1525
     17 O         139.6171  138.6250  158.9395 O.3     1  UNL1       -0.3783
     18 H         140.5146  138.7103  158.5816 H       1  UNL1        0.2109
     19 C         140.9724  138.9588  161.1308 C.ar    1  UNL1        0.0061
     20 C         141.3790  140.3397  161.5524 C.ar    1  UNL1        0.0012
     21 C         142.6897  140.5559  162.2489 C.ar    1  UNL1        0.0364
     22 C         143.5939  139.3911  162.5239 C.ar    1  UNL1        0.1337
     23 O         144.9047  139.6072  163.2204 O.3     1  UNL1       -0.5055
     24 C         143.1874  138.0101  162.1023 C.ar    1  UNL1        0.0364
     25 C         141.8766  137.7940  161.4058 C.ar    1  UNL1        0.0012
     26 H         145.1587  140.4698  163.4838 H       1  UNL1        0.2922
@<TRIPOS>BOND
     1     1     2    2
     2     2     3    1
     3     3     4    1
     4     4     8    1
     5     8     9    1
     6     9    10   ar
     7    10    11   ar
     8    11    12   ar
     9    12    13   ar
    10    13    14   ar
    11     4     5    1
    12     5     6    1
    13     6     7    1
    14     7    15    1
    15    15    16    1
    16    16    17    1
    17    16    19    1
    18    19    20   ar
    19    20    21   ar
    20    21    22   ar
    21    22    23    1
    22    22    24   ar
    23    24    25   ar
    24     7     2   am
    25    25    19   ar
    26    14     9   ar
    27    17    18    1
    28    23    26    1
@<TRIPOS>MOLECULE
*****
 26 28 0 0 0
SMALL
GASTEIGER

@<TRIPOS>ATOM
      1 O         136.8246  141.7179  162.9204 O.2     1  UNL1       -0.2749
      2 C         138.0264  140.9578  163.3977 C.2     1  UNL1        0.2257
      3 C         138.1651  140.6091  164.8500 C.3     1  UNL1        0.0857
      4 C         139.3670  139.8490  165.3273 C.3     1  UNL1        0.0151
      5 C         140.4300  139.4375  164.3523 C.3     1  UNL1        0.0223
      6 C         140.2913  139.7863  162.9000 C.3     1  UNL1        0.0935
      7 N         139.0894  140.5464  162.4227 N.am    1  UNL1       -0.2767
      8 C         139.5057  139.5002  166.7796 C.3     1  UNL1        0.0269
      9 C         139.7523  140.5810  167.7901 C.ar    1  UNL1       -0.0222
     10 C         140.4180  141.8592  167.3740 C.ar    1  UNL1       -0.0043
     11 C         140.6647  142.9399  168.3845 C.ar    1  UNL1       -0.0003
     12 C         140.2456  142.7425  169.8112 C.ar    1  UNL1       -0.0000
     13 C         139.5799  141.4643  170.2273 C.ar    1  UNL1       -0.0003
     14 C         139.3333  140.3836  169.2168 C.ar    1  UNL1       -0.0043
     15 C         138.9507  140.8951  160.9704 C.3     1  UNL1        0.1270
     16 C         139.2329  142.2926  160.5044 C.3     1  UNL1        0.1525
     17 O         138.3562  142.9286  159.4666 O.3     1  UNL1       -0.3783
     18 H         138.6746  143.8257  159.2801 H       1  UNL1        0.2109
     19 C         140.3919  143.0543  161.0761 C.ar    1  UNL1        0.0061
     20 C         140.1476  144.1988  162.0144 C.ar    1  UNL1        0.0012
     21 C         141.3064  144.9604  162.5861 C.ar    1  UNL1        0.0364
     22 C         142.7096  144.5775  162.2196 C.ar    1  UNL1        0.1337
     23 O         143.8686  145.3391  162.7913 O.3     1  UNL1       -0.5055
     24 C         142.9539  143.4330  161.2813 C.ar    1  UNL1        0.0364
     25 C         141.7951  142.6713  160.7096 C.ar    1  UNL1        0.0012
     26 H         143.7160  146.0541  163.3774 H       1  UNL1        0.2922
@<TRIPOS>BOND
     1     1     2    2
     2     2     3    1
     3     3     4    1
     4     4     8    1
     5     8     9    1
     6     9    10   ar
     7    10    11   ar
     8    11    12   ar
     9    12    13   ar
    10    13    14   ar
    11     4     5    1
    12     5     6    1
    13     6     7    1
    14     7    15    1
    15    15    16    1
    16    16    17    1
    17    16    19    1
    18    19    20   ar
    19    20    21   ar
    20    21    22   ar
    21    22    23    1
    22    22    24   ar
    23    24    25   ar
    24     7     2   am
    25    25    19   ar
    26    14     9   ar
    27    17    18    1
    28    23    26    1
@<TRIPOS>MOLECULE
*****
 26 28 0 0 0
SMALL
GASTEIGER

@<TRIPOS>ATOM
      1 O         139.5981  139.7685  161.4572 O.2     1  UNL1       -0.2749
      2 C         140.1908  139.3850  162.7807 C.2     1  UNL1        0.2257
      3 C         139.4079  139.5965  164.0426 C.3     1  UNL1        0.0857
      4 C         140.0006  139.2130  165.3661 C.3     1  UNL1        0.0151
      5 C         141.3762  138.6181  165.4278 C.3     1  UNL1        0.0223
      6 C         142.1591  138.4067  164.1659 C.3     1  UNL1        0.0935
      7 N         141.5664  138.7902  162.8424 N.am    1  UNL1       -0.2767
      8 C         139.2176  139.4244  166.6280 C.3     1  UNL1        0.0269
      9 C         139.6170  140.5075  167.5858 C.ar    1  UNL1       -0.0222
     10 C         140.2115  141.7841  167.0690 C.ar    1  UNL1       -0.0043
     11 C         140.6109  142.8671  168.0269 C.ar    1  UNL1       -0.0003
     12 C         140.4158  142.6736  169.5015 C.ar    1  UNL1       -0.0000
     13 C         139.8213  141.3971  170.0183 C.ar    1  UNL1       -0.0003
     14 C         139.4219  140.3141  169.0604 C.ar    1  UNL1       -0.0043
     15 C         142.3494  138.5787  161.5805 C.3     1  UNL1        0.1270
     16 C         143.6491  139.2987  161.3747 C.3     1  UNL1        0.1525
     17 O         144.8451  138.5548  160.8588 O.3     1  UNL1       -0.3783
     18 H         145.5969  139.1632  160.7844 H       1  UNL1        0.2109
     19 C         143.7528  140.7627  161.6849 C.ar    1  UNL1        0.0061
     20 C         144.7550  141.2471  162.6904 C.ar    1  UNL1        0.0012
     21 C         144.8588  142.7110  163.0005 C.ar    1  UNL1        0.0364
     22 C         143.9603  143.6904  162.3053 C.ar    1  UNL1        0.1337
     23 O         144.0641  145.1544  162.6154 O.3     1  UNL1       -0.5055
     24 C         142.9581  143.2060  161.2998 C.ar    1  UNL1        0.0364
     25 C         142.8544  141.7421  160.9896 C.ar    1  UNL1        0.0012
     26 H         144.6901  145.4570  163.2435 H       1  UNL1        0.2922
@<TRIPOS>BOND
     1     1     2    2
     2     2     3    1
     3     3     4    1
     4     4     8    1
     5     8     9    1
     6     9    10   ar
     7    10    11   ar
     8    11    12   ar
     9    12    13   ar
    10    13    14   ar
    11     4     5    1
    12     5     6    1
    13     6     7    1
    14     7    15    1
    15    15    16    1
    16    16    17    1
    17    16    19    1
    18    19    20   ar
    19    20    21   ar
    20    21    22   ar
    21    22    23    1
    22    22    24   ar
    23    24    25   ar
    24     7     2   am
    25    25    19   ar
    26    14     9   ar
    27    17    18    1
    28    23    26    1
