@<TRIPOS>MOLECULE
*****
 31 34 0 0 0
SMALL
GASTEIGER

@<TRIPOS>ATOM
      1 C         139.7787  141.5660  164.4337 C.ar    1  UNL1        0.1062
      2 C         138.6708  142.2283  163.6694 C.ar    1  UNL1        0.1685
      3 F         137.2733  142.2178  164.2142 F       1  UNL1       -0.2015
      4 C         138.9605  142.9010  162.3605 C.ar    1  UNL1        0.0752
      5 N         137.8527  143.5632  161.5962 N.pl3   1  UNL1       -0.3551
      6 C         140.3581  142.9115  161.8157 C.ar    1  UNL1        0.0722
      7 C         140.6478  143.5842  160.5067 C.ar    1  UNL1        0.2008
      8 O         139.5400  144.2465  159.7424 O.2     1  UNL1       -0.2864
      9 C         142.0454  143.5947  159.9620 C.ar    1  UNL1        0.0702
     10 C         143.1532  142.9325  160.7263 C.ar    1  UNL1        0.0802
     11 N         142.8635  142.2597  162.0353 N.ar    1  UNL1       -0.3259
     12 C         141.4660  142.2492  162.5800 C.ar    1  UNL1        0.0933
     13 C         141.1762  141.5765  163.8890 C.ar    1  UNL1        0.1713
     14 F         142.2841  140.9142  164.6533 F       1  UNL1       -0.2013
     15 H         136.9354  143.5564  161.9537 H       1  UNL1        0.1424
     16 H         138.0429  144.0048  160.7370 H       1  UNL1        0.1424
     17 C         137.3603  137.8520  167.1462 C.3     1  UNL1        0.0189
     18 C         138.2797  139.0363  167.0990 C.3     1  UNL1        0.0741
     19 C         138.5695  139.7090  165.7900 C.3     1  UNL1        0.1066
     20 N         139.4889  140.8932  165.7427 N.pl3   1  UNL1       -0.3012
     21 C         140.1186  141.4047  167.0044 C.3     1  UNL1        0.1066
     22 C         139.8288  140.7320  168.3134 C.3     1  UNL1        0.0741
     23 C         140.4585  141.2434  169.5751 C.3     1  UNL1        0.0189
     24 N         138.9094  139.5477  168.3606 N.3     1  UNL1       -0.2969
     25 H         138.1467  139.7922  168.9922 H       1  UNL1        0.1233
     26 C         142.3351  144.2675  158.6530 C.2     1  UNL1        0.0774
     27 O         142.2016  145.7563  158.5292 O.co2   1  UNL1       -0.5444
     28 O         142.7585  143.4513  157.4678 O.co2   1  UNL1       -0.5444
     29 C         143.9713  141.5975  162.7995 C.3     1  UNL1        0.0857
     30 C         144.7514  140.3653  163.1507 C.3     1  UNL1        0.0245
     31 C         145.1101  141.6826  163.7721 C.3     1  UNL1        0.0245
@<TRIPOS>UNITY_ATOM_ATTR
27 1
charge -1
@<TRIPOS>BOND
     1    18    17    1
     2    18    19    1
     3    19    20    1
     4    20     1    1
     5     1     2   ar
     6     2     3    1
     7     2     4   ar
     8     4     5    1
     9     4     6   ar
    10     6     7   ar
    11     7     8    2
    12     7     9   ar
    13     9    26    1
    14    26    27   ar
    15    26    28   ar
    16     9    10   ar
    17    10    11   ar
    18    11    29    1
    19    29    30    1
    20    30    31    1
    21    11    12   ar
    22    12    13   ar
    23    13    14    1
    24    20    21    1
    25    21    22    1
    26    22    23    1
    27    22    24    1
    28    24    18    1
    29    13     1   ar
    30    12     6   ar
    31    31    29    1
    32     5    15    1
    33     5    16    1
    34    24    25    1
@<TRIPOS>MOLECULE
*****
 31 34 0 0 0
SMALL
GASTEIGER

@<TRIPOS>ATOM
      1 C         140.2367  139.5491  164.2365 C.ar    1  UNL1        0.1062
      2 C         139.1940  138.8226  165.0334 C.ar    1  UNL1        0.1685
      3 F         138.3659  137.7524  164.3860 F       1  UNL1       -0.2015
      4 C         138.9793  139.1663  166.4776 C.ar    1  UNL1        0.0752
      5 N         137.9365  138.4399  167.2745 N.pl3   1  UNL1       -0.3551
      6 C         139.8073  140.2365  167.1250 C.ar    1  UNL1        0.0722
      7 C         139.5926  140.5803  168.5692 C.ar    1  UNL1        0.2008
      8 O         138.5499  139.8538  169.3660 O.2     1  UNL1       -0.2864
      9 C         140.4207  141.6504  169.2165 C.ar    1  UNL1        0.0702
     10 C         141.4634  142.3769  168.4196 C.ar    1  UNL1        0.0802
     11 N         141.6781  142.0332  166.9755 N.ar    1  UNL1       -0.3259
     12 C         140.8500  140.9630  166.3281 C.ar    1  UNL1        0.0933
     13 C         141.0647  140.6192  164.8839 C.ar    1  UNL1        0.1713
     14 F         142.1074  141.3457  164.0870 F       1  UNL1       -0.2013
     15 H         137.3931  137.7375  166.8496 H       1  UNL1        0.1424
     16 H         137.7956  138.6655  168.2223 H       1  UNL1        0.1424
     17 C         138.6305  139.6658  159.2962 C.3     1  UNL1        0.0189
     18 C         139.6482  139.2637  160.3222 C.3     1  UNL1        0.0741
     19 C         139.4336  139.6074  161.7664 C.3     1  UNL1        0.1066
     20 N         140.4514  139.2053  162.7923 N.pl3   1  UNL1       -0.3012
     21 C         141.6837  138.4595  162.3740 C.3     1  UNL1        0.1066
     22 C         141.8983  138.1158  160.9298 C.3     1  UNL1        0.0741
     23 C         143.1308  137.3699  160.5115 C.3     1  UNL1        0.0189
     24 N         140.8806  138.5179  159.9039 N.3     1  UNL1       -0.2969
     25 H         140.5659  137.6606  159.4495 H       1  UNL1        0.1233
     26 C         140.2060  141.9942  170.6608 C.2     1  UNL1        0.0774
     27 O         140.7529  141.1001  171.7338 O.co2   1  UNL1       -0.5444
     28 O         139.4444  143.2320  171.0319 O.co2   1  UNL1       -0.5444
     29 C         142.7208  142.7596  166.1786 C.3     1  UNL1        0.0857
     30 C         143.0848  143.7523  165.1147 C.3     1  UNL1        0.0245
     31 C         144.1628  143.0251  165.8623 C.3     1  UNL1        0.0245
@<TRIPOS>UNITY_ATOM_ATTR
27 1
charge -1
@<TRIPOS>BOND
     1    18    17    1
     2    18    19    1
     3    19    20    1
     4    20     1    1
     5     1     2   ar
     6     2     3    1
     7     2     4   ar
     8     4     5    1
     9     4     6   ar
    10     6     7   ar
    11     7     8    2
    12     7     9   ar
    13     9    26    1
    14    26    27   ar
    15    26    28   ar
    16     9    10   ar
    17    10    11   ar
    18    11    29    1
    19    29    30    1
    20    30    31    1
    21    11    12   ar
    22    12    13   ar
    23    13    14    1
    24    20    21    1
    25    21    22    1
    26    22    23    1
    27    22    24    1
    28    24    18    1
    29    13     1   ar
    30    12     6   ar
    31    31    29    1
    32     5    15    1
    33     5    16    1
    34    24    25    1
@<TRIPOS>MOLECULE
*****
 31 34 0 0 0
SMALL
GASTEIGER

@<TRIPOS>ATOM
      1 C         141.7470  141.5145  166.4598 C.ar    1  UNL1        0.1062
      2 C         142.9353  142.4273  166.3894 C.ar    1  UNL1        0.1685
      3 F         143.7997  142.6277  167.5988 F       1  UNL1       -0.2015
      4 C         143.2591  143.1395  165.1096 C.ar    1  UNL1        0.0752
      5 N         144.4474  144.0522  165.0392 N.pl3   1  UNL1       -0.3551
      6 C         142.3946  142.9390  163.9002 C.ar    1  UNL1        0.0722
      7 C         142.7185  143.6512  162.6205 C.ar    1  UNL1        0.2008
      8 O         143.9067  144.5639  162.5500 O.2     1  UNL1       -0.2864
      9 C         141.8540  143.4507  161.4112 C.ar    1  UNL1        0.0702
     10 C         140.6657  142.5380  161.4816 C.ar    1  UNL1        0.0802
     11 N         140.3419  141.8258  162.7614 N.ar    1  UNL1       -0.3259
     12 C         141.2064  142.0263  163.9707 C.ar    1  UNL1        0.0933
     13 C         140.8826  141.3140  165.2505 C.ar    1  UNL1        0.1713
     14 F         139.6943  140.4013  165.3210 F       1  UNL1       -0.2013
     15 H         145.0147  144.1838  165.8329 H       1  UNL1        0.1424
     16 H         144.6599  144.5196  164.1992 H       1  UNL1        0.1424
     17 C         138.4473  140.5297  170.3511 C.3     1  UNL1        0.0189
     18 C         139.7733  140.3099  169.6853 C.3     1  UNL1        0.0741
     19 C         140.0972  141.0221  168.4055 C.3     1  UNL1        0.1066
     20 N         141.4232  140.8023  167.7397 N.pl3   1  UNL1       -0.3012
     21 C         142.4254  139.8704  168.3537 C.3     1  UNL1        0.1066
     22 C         142.1016  139.1582  169.6335 C.3     1  UNL1        0.0741
     23 C         143.1038  138.2262  170.2475 C.3     1  UNL1        0.0189
     24 N         140.7755  139.3780  170.2993 N.3     1  UNL1       -0.2969
     25 H         140.9713  139.7316  171.2358 H       1  UNL1        0.1233
     26 C         142.1778  144.1629  160.1313 C.2     1  UNL1        0.0774
     27 O         143.2127  143.6017  159.2018 O.co2   1  UNL1       -0.5444
     28 O         141.4667  145.4363  159.7810 O.co2   1  UNL1       -0.5444
     29 C         139.1537  140.9130  162.8318 C.3     1  UNL1        0.0857
     30 C         138.5551  139.5459  162.6817 C.3     1  UNL1        0.0245
     31 C         137.6941  140.6994  163.1039 C.3     1  UNL1        0.0245
@<TRIPOS>UNITY_ATOM_ATTR
27 1
charge -1
@<TRIPOS>BOND
     1    18    17    1
     2    18    19    1
     3    19    20    1
     4    20     1    1
     5     1     2   ar
     6     2     3    1
     7     2     4   ar
     8     4     5    1
     9     4     6   ar
    10     6     7   ar
    11     7     8    2
    12     7     9   ar
    13     9    26    1
    14    26    27   ar
    15    26    28   ar
    16     9    10   ar
    17    10    11   ar
    18    11    29    1
    19    29    30    1
    20    30    31    1
    21    11    12   ar
    22    12    13   ar
    23    13    14    1
    24    20    21    1
    25    21    22    1
    26    22    23    1
    27    22    24    1
    28    24    18    1
    29    13     1   ar
    30    12     6   ar
    31    31    29    1
    32     5    15    1
    33     5    16    1
    34    24    25    1
@<TRIPOS>MOLECULE
*****
 31 34 0 0 0
SMALL
GASTEIGER

@<TRIPOS>ATOM
      1 C         141.7592  141.4912  166.4825 C.ar    1  UNL1        0.1062
      2 C         142.9475  142.4040  166.4145 C.ar    1  UNL1        0.1685
      3 F         143.8065  142.6085  167.6272 F       1  UNL1       -0.2015
      4 C         143.2769  143.1123  165.1340 C.ar    1  UNL1        0.0752
      5 N         144.4652  144.0251  165.0660 N.pl3   1  UNL1       -0.3551
      6 C         142.4179  142.9078  163.9214 C.ar    1  UNL1        0.0722
      7 C         142.7473  143.6160  162.6408 C.ar    1  UNL1        0.2008
      8 O         143.9357  144.5288  162.5728 O.2     1  UNL1       -0.2864
      9 C         141.8884  143.4115  161.4283 C.ar    1  UNL1        0.0702
     10 C         140.7000  142.4987  161.4963 C.ar    1  UNL1        0.0802
     11 N         140.3706  141.7904  162.7768 N.ar    1  UNL1       -0.3259
     12 C         141.2296  141.9949  163.9893 C.ar    1  UNL1        0.0933
     13 C         140.9002  141.2867  165.2700 C.ar    1  UNL1        0.1713
     14 F         139.7119  140.3739  165.3380 F       1  UNL1       -0.2013
     15 H         145.0290  144.1593  165.8619 H       1  UNL1        0.1424
     16 H         144.6814  144.4899  164.2255 H       1  UNL1        0.1424
     17 C         143.1016  138.2185  170.2887 C.3     1  UNL1        0.0189
     18 C         142.1011  139.1466  169.6662 C.3     1  UNL1        0.0741
     19 C         142.4304  139.8548  168.3857 C.3     1  UNL1        0.1066
     20 N         141.4298  140.7829  167.7631 N.pl3   1  UNL1       -0.3012
     21 C         140.0999  141.0027  168.4212 C.3     1  UNL1        0.1066
     22 C         139.7706  140.2945  169.7017 C.3     1  UNL1        0.0741
     23 C         138.4407  140.5143  170.3598 C.3     1  UNL1        0.0189
     24 N         140.7712  139.3664  170.3243 N.3     1  UNL1       -0.2969
     25 H         140.3224  138.4531  170.3935 H       1  UNL1        0.1233
     26 C         142.2177  144.1198  160.1477 C.2     1  UNL1        0.0774
     27 O         141.5292  145.4073  159.8042 O.co2   1  UNL1       -0.5444
     28 O         143.2357  143.5404  159.2106 O.co2   1  UNL1       -0.5444
     29 C         139.1823  140.8776  162.8448 C.3     1  UNL1        0.0857
     30 C         138.5953  139.5003  162.7531 C.3     1  UNL1        0.0245
     31 C         137.7110  140.6739  163.0542 C.3     1  UNL1        0.0245
@<TRIPOS>UNITY_ATOM_ATTR
27 1
charge -1
@<TRIPOS>BOND
     1    18    17    1
     2    18    19    1
     3    19    20    1
     4    20     1    1
     5     1     2   ar
     6     2     3    1
     7     2     4   ar
     8     4     5    1
     9     4     6   ar
    10     6     7   ar
    11     7     8    2
    12     7     9   ar
    13     9    26    1
    14    26    27   ar
    15    26    28   ar
    16     9    10   ar
    17    10    11   ar
    18    11    29    1
    19    29    30    1
    20    30    31    1
    21    11    12   ar
    22    12    13   ar
    23    13    14    1
    24    20    21    1
    25    21    22    1
    26    22    23    1
    27    22    24    1
    28    24    18    1
    29    13     1   ar
    30    12     6   ar
    31    31    29    1
    32     5    15    1
    33     5    16    1
    34    24    25    1
@<TRIPOS>MOLECULE
*****
 31 34 0 0 0
SMALL
GASTEIGER

@<TRIPOS>ATOM
      1 C         140.8842  140.3670  165.3169 C.ar    1  UNL1        0.1062
      2 C         141.4663  139.0973  164.7700 C.ar    1  UNL1        0.1685
      3 F         142.1352  138.1210  165.6917 F       1  UNL1       -0.2015
      4 C         141.3794  138.8039  163.3016 C.ar    1  UNL1        0.0752
      5 N         141.9614  137.5342  162.7547 N.pl3   1  UNL1       -0.3551
      6 C         140.7104  139.7803  162.3800 C.ar    1  UNL1        0.0722
      7 C         140.6235  139.4869  160.9115 C.ar    1  UNL1        0.2008
      8 O         141.2056  138.2172  160.3647 O.2     1  UNL1       -0.2864
      9 C         139.9546  140.4632  159.9900 C.ar    1  UNL1        0.0702
     10 C         139.3725  141.7329  160.5369 C.ar    1  UNL1        0.0802
     11 N         139.4594  142.0263  162.0053 N.ar    1  UNL1       -0.3259
     12 C         140.1284  141.0500  162.9268 C.ar    1  UNL1        0.0933
     13 C         140.2153  141.3433  164.3954 C.ar    1  UNL1        0.1713
     14 F         139.6332  142.6130  164.9422 F       1  UNL1       -0.2013
     15 H         142.4005  136.8935  163.3596 H       1  UNL1        0.1424
     16 H         141.9044  137.3417  161.7909 H       1  UNL1        0.1424
     17 C         143.5521  142.1686  169.3957 C.3     1  UNL1        0.0189
     18 C         142.3051  141.5612  168.8248 C.3     1  UNL1        0.0741
     19 C         142.2181  141.2678  167.3564 C.3     1  UNL1        0.1066
     20 N         140.9711  140.6604  166.7854 N.pl3   1  UNL1       -0.3012
     21 C         139.8110  140.3464  167.6829 C.3     1  UNL1        0.1066
     22 C         139.8980  140.6398  169.1513 C.3     1  UNL1        0.0741
     23 C         138.7378  140.3257  170.0489 C.3     1  UNL1        0.0189
     24 N         141.1450  141.2472  169.7223 N.3     1  UNL1       -0.2969
     25 H         141.4888  140.6009  170.4326 H       1  UNL1        0.1233
     26 C         139.8677  140.1698  158.5215 C.2     1  UNL1        0.0774
     27 O         141.0313  140.4750  157.6255 O.co2   1  UNL1       -0.5444
     28 O         138.6171  139.5712  157.9490 O.co2   1  UNL1       -0.5444
     29 C         138.8774  143.2960  162.5522 C.3     1  UNL1        0.0857
     30 C         139.0234  144.7478  162.8999 C.3     1  UNL1        0.0245
     31 C         137.7232  144.0433  163.1516 C.3     1  UNL1        0.0245
@<TRIPOS>UNITY_ATOM_ATTR
27 1
charge -1
@<TRIPOS>BOND
     1    18    17    1
     2    18    19    1
     3    19    20    1
     4    20     1    1
     5     1     2   ar
     6     2     3    1
     7     2     4   ar
     8     4     5    1
     9     4     6   ar
    10     6     7   ar
    11     7     8    2
    12     7     9   ar
    13     9    26    1
    14    26    27   ar
    15    26    28   ar
    16     9    10   ar
    17    10    11   ar
    18    11    29    1
    19    29    30    1
    20    30    31    1
    21    11    12   ar
    22    12    13   ar
    23    13    14    1
    24    20    21    1
    25    21    22    1
    26    22    23    1
    27    22    24    1
    28    24    18    1
    29    13     1   ar
    30    12     6   ar
    31    31    29    1
    32     5    15    1
    33     5    16    1
    34    24    25    1
@<TRIPOS>MOLECULE
*****
 31 34 0 0 0
SMALL
GASTEIGER

@<TRIPOS>ATOM
      1 C         142.6257  140.0574  163.4980 C.ar    1  UNL1        0.1062
      2 C         143.5359  139.1700  164.2942 C.ar    1  UNL1        0.1685
      3 F         144.6303  138.4082  163.6069 F       1  UNL1       -0.2015
      4 C         143.3519  139.0443  165.7775 C.ar    1  UNL1        0.0752
      5 N         144.2622  138.1568  166.5736 N.pl3   1  UNL1       -0.3551
      6 C         142.2576  139.8060  166.4647 C.ar    1  UNL1        0.0722
      7 C         142.0736  139.6803  167.9481 C.ar    1  UNL1        0.2008
      8 O         142.9839  138.7929  168.7442 O.2     1  UNL1       -0.2864
      9 C         140.9793  140.4421  168.6352 C.ar    1  UNL1        0.0702
     10 C         140.0691  141.3296  167.8391 C.ar    1  UNL1        0.0802
     11 N         140.2531  141.4553  166.3558 N.ar    1  UNL1       -0.3259
     12 C         141.3474  140.6935  165.6686 C.ar    1  UNL1        0.0933
     13 C         141.5314  140.8192  164.1852 C.ar    1  UNL1        0.1713
     14 F         140.6212  141.7066  163.3890 F       1  UNL1       -0.2013
     15 H         144.9804  137.6568  166.1226 H       1  UNL1        0.1424
     16 H         144.1414  138.0743  167.5472 H       1  UNL1        0.1424
     17 C         141.7248  138.3109  158.6878 C.3     1  UNL1        0.0189
     18 C         142.3593  139.3098  159.6095 C.3     1  UNL1        0.0741
     19 C         142.1753  139.1842  161.0929 C.3     1  UNL1        0.1066
     20 N         142.8098  140.1831  162.0146 N.pl3   1  UNL1       -0.3012
     21 C         143.6283  141.3076  161.4530 C.3     1  UNL1        0.1066
     22 C         143.8123  141.4333  159.9697 C.3     1  UNL1        0.0741
     23 C         144.6308  142.5578  159.4081 C.3     1  UNL1        0.0189
     24 N         143.1778  140.4343  159.0480 N.3     1  UNL1       -0.2969
     25 H         143.9329  140.0089  158.5101 H       1  UNL1        0.1233
     26 C         140.7953  140.3164  170.1186 C.2     1  UNL1        0.0774
     27 O         141.8889  140.7494  171.0494 O.co2   1  UNL1       -0.5444
     28 O         139.5176  139.7577  170.6712 O.co2   1  UNL1       -0.5444
     29 C         139.3429  142.3427  165.5596 C.3     1  UNL1        0.0857
     30 C         138.1348  142.5171  164.6878 C.3     1  UNL1        0.0245
     31 C         138.9744  143.7054  165.0525 C.3     1  UNL1        0.0245
@<TRIPOS>UNITY_ATOM_ATTR
27 1
charge -1
@<TRIPOS>BOND
     1    18    17    1
     2    18    19    1
     3    19    20    1
     4    20     1    1
     5     1     2   ar
     6     2     3    1
     7     2     4   ar
     8     4     5    1
     9     4     6   ar
    10     6     7   ar
    11     7     8    2
    12     7     9   ar
    13     9    26    1
    14    26    27   ar
    15    26    28   ar
    16     9    10   ar
    17    10    11   ar
    18    11    29    1
    19    29    30    1
    20    30    31    1
    21    11    12   ar
    22    12    13   ar
    23    13    14    1
    24    20    21    1
    25    21    22    1
    26    22    23    1
    27    22    24    1
    28    24    18    1
    29    13     1   ar
    30    12     6   ar
    31    31    29    1
    32     5    15    1
    33     5    16    1
    34    24    25    1
@<TRIPOS>MOLECULE
*****
 31 34 0 0 0
SMALL
GASTEIGER

@<TRIPOS>ATOM
      1 C         141.3161  140.1726  165.9996 C.ar    1  UNL1        0.1062
      2 C         140.1754  139.2684  165.6375 C.ar    1  UNL1        0.1685
      3 F         139.1682  138.8781  166.6783 F       1  UNL1       -0.2015
      4 C         140.0419  138.7545  164.2346 C.ar    1  UNL1        0.0752
      5 N         138.9012  137.8503  163.8725 N.pl3   1  UNL1       -0.3551
      6 C         141.0491  139.1448  163.1938 C.ar    1  UNL1        0.0722
      7 C         140.9156  138.6309  161.7910 C.ar    1  UNL1        0.2008
      8 O         139.7749  137.7267  161.4289 O.2     1  UNL1       -0.2864
      9 C         141.9228  139.0212  160.7503 C.ar    1  UNL1        0.0702
     10 C         143.0635  139.9254  161.1124 C.ar    1  UNL1        0.0802
     11 N         143.1971  140.4393  162.5152 N.ar    1  UNL1       -0.3259
     12 C         142.1899  140.0490  163.5560 C.ar    1  UNL1        0.0933
     13 C         142.3234  140.5629  164.9589 C.ar    1  UNL1        0.1713
     14 F         143.4641  141.4671  165.3210 F       1  UNL1       -0.2013
     15 H         138.2401  137.5941  164.5556 H       1  UNL1        0.1424
     16 H         138.8135  137.5130  162.9518 H       1  UNL1        0.1424
     17 C         143.1035  139.6119  170.8464 C.3     1  UNL1        0.0189
     18 C         142.3433  140.4061  169.8259 C.3     1  UNL1        0.0741
     19 C         142.2098  139.8923  168.4230 C.3     1  UNL1        0.1066
     20 N         141.4496  140.6865  167.4026 N.pl3   1  UNL1       -0.3012
     21 C         140.8230  141.9945  167.7850 C.3     1  UNL1        0.1066
     22 C         140.9565  142.5083  169.1878 C.3     1  UNL1        0.0741
     23 C         140.3298  143.8165  169.5703 C.3     1  UNL1        0.0189
     24 N         141.7167  141.7141  170.2083 N.3     1  UNL1       -0.2969
     25 H         141.0688  141.5183  170.9714 H       1  UNL1        0.1233
     26 C         141.7893  138.5073  159.3473 C.2     1  UNL1        0.0774
     27 O         140.6631  138.9830  158.4783 O.co2   1  UNL1       -0.5444
     28 O         142.7821  137.5176  158.8135 O.co2   1  UNL1       -0.5444
     29 C         144.3378  141.3435  162.8774 C.3     1  UNL1        0.0857
     30 C         144.9377  142.7169  162.9391 C.3     1  UNL1        0.0245
     31 C         145.7137  141.5362  163.4428 C.3     1  UNL1        0.0245
@<TRIPOS>UNITY_ATOM_ATTR
27 1
charge -1
@<TRIPOS>BOND
     1    18    17    1
     2    18    19    1
     3    19    20    1
     4    20     1    1
     5     1     2   ar
     6     2     3    1
     7     2     4   ar
     8     4     5    1
     9     4     6   ar
    10     6     7   ar
    11     7     8    2
    12     7     9   ar
    13     9    26    1
    14    26    27   ar
    15    26    28   ar
    16     9    10   ar
    17    10    11   ar
    18    11    29    1
    19    29    30    1
    20    30    31    1
    21    11    12   ar
    22    12    13   ar
    23    13    14    1
    24    20    21    1
    25    21    22    1
    26    22    23    1
    27    22    24    1
    28    24    18    1
    29    13     1   ar
    30    12     6   ar
    31    31    29    1
    32     5    15    1
    33     5    16    1
    34    24    25    1
@<TRIPOS>MOLECULE
*****
 31 34 0 0 0
SMALL
GASTEIGER

@<TRIPOS>ATOM
      1 C         139.7640  141.6927  163.3592 C.ar    1  UNL1        0.1062
      2 C         138.6459  140.9576  164.0371 C.ar    1  UNL1        0.1685
      3 F         137.3388  140.7611  163.3278 F       1  UNL1       -0.2015
      4 C         138.8348  140.4191  165.4243 C.ar    1  UNL1        0.0752
      5 N         137.7167  139.6840  166.1022 N.pl3   1  UNL1       -0.3551
      6 C         140.1418  140.6157  166.1336 C.ar    1  UNL1        0.0722
      7 C         140.3308  140.0772  167.5208 C.ar    1  UNL1        0.2008
      8 O         139.2127  139.3421  168.1987 O.2     1  UNL1       -0.2864
      9 C         141.6377  140.2738  168.2300 C.ar    1  UNL1        0.0702
     10 C         142.7558  141.0089  167.5521 C.ar    1  UNL1        0.0802
     11 N         142.5669  141.5474  166.1650 N.ar    1  UNL1       -0.3259
     12 C         141.2599  141.3508  165.4557 C.ar    1  UNL1        0.0933
     13 C         141.0709  141.8893  164.0685 C.ar    1  UNL1        0.1713
     14 F         142.1890  142.6244  163.3906 F       1  UNL1       -0.2013
     15 H         136.8589  139.5550  165.6367 H       1  UNL1        0.1424
     16 H         137.8407  139.3306  167.0126 H       1  UNL1        0.1424
     17 C         138.1577  141.0441  158.4603 C.3     1  UNL1        0.0189
     18 C         138.7718  141.9069  159.5226 C.3     1  UNL1        0.0741
     19 C         138.9608  141.3684  160.9097 C.3     1  UNL1        0.1066
     20 N         139.5750  142.2313  161.9720 N.pl3   1  UNL1       -0.3012
     21 C         140.0002  143.6325  161.6470 C.3     1  UNL1        0.1066
     22 C         139.8112  144.1710  160.2599 C.3     1  UNL1        0.0741
     23 C         140.2364  145.5723  159.9349 C.3     1  UNL1        0.0189
     24 N         139.1970  143.3081  159.1976 N.3     1  UNL1       -0.2969
     25 H         139.8789  143.2412  158.4420 H       1  UNL1        0.1233
     26 C         141.8267  139.7353  169.6173 C.2     1  UNL1        0.0774
     27 O         141.0392  140.3084  170.7580 O.co2   1  UNL1       -0.5444
     28 O         142.8032  138.6237  169.8637 O.co2   1  UNL1       -0.5444
     29 C         143.6850  142.2825  165.4871 C.3     1  UNL1        0.0857
     30 C         144.8382  142.2947  164.5280 C.3     1  UNL1        0.0245
     31 C         144.4682  143.5435  165.2720 C.3     1  UNL1        0.0245
@<TRIPOS>UNITY_ATOM_ATTR
27 1
charge -1
@<TRIPOS>BOND
     1    18    17    1
     2    18    19    1
     3    19    20    1
     4    20     1    1
     5     1     2   ar
     6     2     3    1
     7     2     4   ar
     8     4     5    1
     9     4     6   ar
    10     6     7   ar
    11     7     8    2
    12     7     9   ar
    13     9    26    1
    14    26    27   ar
    15    26    28   ar
    16     9    10   ar
    17    10    11   ar
    18    11    29    1
    19    29    30    1
    20    30    31    1
    21    11    12   ar
    22    12    13   ar
    23    13    14    1
    24    20    21    1
    25    21    22    1
    26    22    23    1
    27    22    24    1
    28    24    18    1
    29    13     1   ar
    30    12     6   ar
    31    31    29    1
    32     5    15    1
    33     5    16    1
    34    24    25    1
@<TRIPOS>MOLECULE
*****
 31 34 0 0 0
SMALL
GASTEIGER

@<TRIPOS>ATOM
      1 C         142.4313  141.2587  165.3502 C.ar    1  UNL1        0.1062
      2 C         143.5892  142.0628  164.8375 C.ar    1  UNL1        0.1685
      3 F         144.4291  142.8602  165.7908 F       1  UNL1       -0.2015
      4 C         143.9072  142.0694  163.3717 C.ar    1  UNL1        0.0752
      5 N         145.0651  142.8734  162.8590 N.pl3   1  UNL1       -0.3551
      6 C         143.0673  141.2719  162.4184 C.ar    1  UNL1        0.0722
      7 C         143.3853  141.2785  160.9525 C.ar    1  UNL1        0.2008
      8 O         144.5432  142.0825  160.4399 O.2     1  UNL1       -0.2864
      9 C         142.5454  140.4811  159.9993 C.ar    1  UNL1        0.0702
     10 C         141.3875  139.6770  160.5120 C.ar    1  UNL1        0.0802
     11 N         141.0695  139.6704  161.9778 N.ar    1  UNL1       -0.3259
     12 C         141.9094  140.4678  162.9310 C.ar    1  UNL1        0.0933
     13 C         141.5914  140.4613  164.3970 C.ar    1  UNL1        0.1713
     14 F         140.4335  139.6572  164.9096 F       1  UNL1       -0.2013
     15 H         145.6163  143.3968  163.4847 H       1  UNL1        0.1424
     16 H         145.2738  142.8777  161.8969 H       1  UNL1        0.1424
     17 C         142.5503  138.8832  169.9700 C.3     1  UNL1        0.0189
     18 C         142.1728  140.0644  169.1260 C.3     1  UNL1        0.0741
     19 C         142.4908  140.0710  167.6601 C.3     1  UNL1        0.1066
     20 N         142.1133  141.2521  166.8161 N.pl3   1  UNL1       -0.3012
     21 C         141.4178  142.4267  167.4380 C.3     1  UNL1        0.1066
     22 C         141.0999  142.4201  168.9038 C.3     1  UNL1        0.0741
     23 C         140.4044  143.5946  169.5258 C.3     1  UNL1        0.0189
     24 N         141.4774  141.2389  169.7479 N.3     1  UNL1       -0.2969
     25 H         140.6149  140.8851  170.1618 H       1  UNL1        0.1233
     26 C         142.8634  140.4876  158.5334 C.2     1  UNL1        0.0774
     27 O         144.0638  139.7471  158.0230 O.co2   1  UNL1       -0.5444
     28 O         141.9809  141.2347  157.5779 O.co2   1  UNL1       -0.5444
     29 C         139.9116  138.8664  162.4905 C.3     1  UNL1        0.0857
     30 C         139.3691  137.5936  163.0698 C.3     1  UNL1        0.0245
     31 C         138.4486  138.7465  162.7990 C.3     1  UNL1        0.0245
@<TRIPOS>UNITY_ATOM_ATTR
27 1
charge -1
@<TRIPOS>BOND
     1    18    17    1
     2    18    19    1
     3    19    20    1
     4    20     1    1
     5     1     2   ar
     6     2     3    1
     7     2     4   ar
     8     4     5    1
     9     4     6   ar
    10     6     7   ar
    11     7     8    2
    12     7     9   ar
    13     9    26    1
    14    26    27   ar
    15    26    28   ar
    16     9    10   ar
    17    10    11   ar
    18    11    29    1
    19    29    30    1
    20    30    31    1
    21    11    12   ar
    22    12    13   ar
    23    13    14    1
    24    20    21    1
    25    21    22    1
    26    22    23    1
    27    22    24    1
    28    24    18    1
    29    13     1   ar
    30    12     6   ar
    31    31    29    1
    32     5    15    1
    33     5    16    1
    34    24    25    1
