@<TRIPOS>MOLECULE
*****
 32 35 0 0 0
SMALL
GASTEIGER

@<TRIPOS>ATOM
      1 C         142.1002  138.0293  158.6806 C.ar    1  UNL1        0.0766
      2 C         140.7277  138.6333  158.6453 C.ar    1  UNL1        0.0134
      3 C         139.9884  138.8905  159.9248 C.ar    1  UNL1       -0.0057
      4 C         140.6216  138.5437  161.2396 C.ar    1  UNL1        0.0693
      5 C         141.9942  137.9397  161.2749 C.ar    1  UNL1        0.1130
      6 N         142.7334  137.6824  159.9954 N.ar    1  UNL1       -0.2452
      7 N         139.8823  138.8010  162.5192 N.am    1  UNL1       -0.2540
      8 C         140.5155  138.4541  163.8340 C.2     1  UNL1        0.2528
      9 O         141.8881  137.8501  163.8693 O.2     1  UNL1       -0.2696
     10 C         138.5098  139.4050  162.4840 C.3     1  UNL1        0.0989
     11 C         137.8766  139.7519  161.1692 C.3     1  UNL1        0.0266
     12 C         138.6158  139.4946  159.8896 C.3     1  UNL1        0.0295
     13 C         139.7763  138.7114  165.1136 C.ar    1  UNL1        0.0547
     14 C         138.5580  137.9039  165.4513 C.ar    1  UNL1        0.0046
     15 C         137.8188  138.1611  166.7308 C.ar    1  UNL1        0.0010
     16 C         138.2977  139.2258  167.6727 C.ar    1  UNL1        0.0114
     17 C         139.5158  140.0332  167.3351 C.ar    1  UNL1        0.0578
     18 CL        139.9947  141.0979  168.2769 Cl      1  UNL1       -0.0822
     19 C         140.2552  139.7760  166.0555 C.ar    1  UNL1        0.0159
     20 C         142.9997  138.8715  156.3933 C.3     1  UNL1        0.0278
     21 C         142.8395  137.7720  157.4010 C.3     1  UNL1        0.1121
     22 N         143.4187  136.4153  157.1292 N.am    1  UNL1       -0.2973
     23 C         142.6044  135.3832  156.4070 C.2     1  UNL1        0.2461
     24 O         141.2109  135.7077  155.9566 O.2     1  UNL1       -0.2701
     25 H         144.3333  136.2023  157.4248 H       1  UNL1        0.1500
     26 C         143.1835  134.0264  156.1353 C.ar    1  UNL1        0.0534
     27 C         144.1355  133.4072  157.1154 C.ar    1  UNL1        0.0054
     28 C         144.7146  132.0505  156.8436 C.ar    1  UNL1        0.0115
     29 C         144.3419  131.3130  155.5917 C.ar    1  UNL1        0.0577
     30 CL        144.9210  129.9562  155.3199 Cl      1  UNL1       -0.0822
     31 C         143.3900  131.9322  154.6116 C.ar    1  UNL1        0.0115
     32 C         142.8108  133.2889  154.8834 C.ar    1  UNL1        0.0054
@<TRIPOS>BOND
     1    21    20    1
     2    21    22    1
     3    22    23   am
     4    23    24    2
     5    23    26    1
     6    26    27   ar
     7    27    28   ar
     8    28    29   ar
     9    29    30    1
    10    29    31   ar
    11    31    32   ar
    12    21     1    1
    13     1     2   ar
    14     2     3   ar
    15     3     4   ar
    16     4     5   ar
    17     5     6   ar
    18     4     7    1
    19     7     8   am
    20     8     9    2
    21     8    13    1
    22    13    14   ar
    23    14    15   ar
    24    15    16   ar
    25    16    17   ar
    26    17    18    1
    27    17    19   ar
    28     7    10    1
    29    10    11    1
    30    11    12    1
    31    32    26   ar
    32     6     1   ar
    33    19    13   ar
    34    12     3    1
    35    22    25    1
@<TRIPOS>MOLECULE
*****
 32 35 0 0 0
SMALL
GASTEIGER

@<TRIPOS>ATOM
      1 C         137.6546  142.8136  156.3349 C.ar    1  UNL1        0.0766
      2 C         138.6638  143.8849  156.0456 C.ar    1  UNL1        0.0134
      3 C         139.6477  144.2933  157.1016 C.ar    1  UNL1       -0.0057
      4 C         139.6224  143.6304  158.4469 C.ar    1  UNL1        0.0693
      5 C         138.6132  142.5590  158.7363 C.ar    1  UNL1        0.1130
      6 N         137.6293  142.1506  157.6803 N.ar    1  UNL1       -0.2452
      7 N         140.6063  144.0388  159.5029 N.am    1  UNL1       -0.2540
      8 C         140.5810  143.3759  160.8483 C.2     1  UNL1        0.2528
      9 O         139.5718  142.3045  161.1376 O.2     1  UNL1       -0.2696
     10 C         141.6155  145.1102  159.2136 C.3     1  UNL1        0.0989
     11 C         141.6408  145.7731  157.8683 C.3     1  UNL1        0.0266
     12 C         140.6569  145.3647  156.8123 C.3     1  UNL1        0.0295
     13 C         141.5649  143.7843  161.9042 C.ar    1  UNL1        0.0547
     14 C         141.2990  144.9949  162.7492 C.ar    1  UNL1        0.0046
     15 C         142.2828  145.4033  163.8052 C.ar    1  UNL1        0.0010
     16 C         143.5326  144.6012  164.0163 C.ar    1  UNL1        0.0114
     17 C         143.7986  143.3907  163.1714 C.ar    1  UNL1        0.0578
     18 CL        145.0484  142.5885  163.3826 Cl      1  UNL1       -0.0822
     19 C         142.8147  142.9822  162.1154 C.ar    1  UNL1        0.0159
     20 C         137.1058  142.3049  153.8469 C.3     1  UNL1        0.0278
     21 C         136.6707  142.4051  155.2789 C.3     1  UNL1        0.1121
     22 N         135.2517  142.0968  155.6550 N.am    1  UNL1       -0.2973
     23 C         134.8218  140.6742  155.8583 C.2     1  UNL1        0.2461
     24 O         135.8109  139.5598  155.6855 O.2     1  UNL1       -0.2701
     25 H         134.6025  142.8282  155.7684 H       1  UNL1        0.1500
     26 C         133.4028  140.3660  156.2344 C.ar    1  UNL1        0.0534
     27 C         133.1087  139.2782  157.2245 C.ar    1  UNL1        0.0054
     28 C         131.6897  138.9699  157.6006 C.ar    1  UNL1        0.0115
     29 C         130.5648  139.7494  156.9865 C.ar    1  UNL1        0.0577
     30 CL        129.1458  139.4412  157.3625 Cl      1  UNL1       -0.0822
     31 C         130.8589  140.8371  155.9964 C.ar    1  UNL1        0.0115
     32 C         132.2779  141.1454  155.6203 C.ar    1  UNL1        0.0054
@<TRIPOS>BOND
     1    21    20    1
     2    21    22    1
     3    22    23   am
     4    23    24    2
     5    23    26    1
     6    26    27   ar
     7    27    28   ar
     8    28    29   ar
     9    29    30    1
    10    29    31   ar
    11    31    32   ar
    12    21     1    1
    13     1     2   ar
    14     2     3   ar
    15     3     4   ar
    16     4     5   ar
    17     5     6   ar
    18     4     7    1
    19     7     8   am
    20     8     9    2
    21     8    13    1
    22    13    14   ar
    23    14    15   ar
    24    15    16   ar
    25    16    17   ar
    26    17    18    1
    27    17    19   ar
    28     7    10    1
    29    10    11    1
    30    11    12    1
    31    32    26   ar
    32     6     1   ar
    33    19    13   ar
    34    12     3    1
    35    22    25    1
@<TRIPOS>MOLECULE
*****
 32 35 0 0 0
SMALL
GASTEIGER

@<TRIPOS>ATOM
      1 C         143.0705  140.3395  160.6167 C.ar    1  UNL1        0.0766
      2 C         143.9427  139.6768  161.6414 C.ar    1  UNL1        0.0134
      3 C         143.5742  139.7403  163.0940 C.ar    1  UNL1       -0.0057
      4 C         142.3334  140.4666  163.5219 C.ar    1  UNL1        0.0693
      5 C         141.4612  141.1293  162.4972 C.ar    1  UNL1        0.1130
      6 N         141.8298  141.0658  161.0446 N.ar    1  UNL1       -0.2452
      7 N         141.9649  140.5301  164.9746 N.am    1  UNL1       -0.2540
      8 C         140.7242  141.2564  165.4025 C.2     1  UNL1        0.2528
      9 O         139.8520  141.9192  164.3778 O.2     1  UNL1       -0.2696
     10 C         142.8371  139.8674  165.9993 C.3     1  UNL1        0.0989
     11 C         144.0779  139.1411  165.5714 C.3     1  UNL1        0.0266
     12 C         144.4464  139.0776  164.1188 C.3     1  UNL1        0.0295
     13 C         140.3557  141.3200  166.8551 C.ar    1  UNL1        0.0547
     14 C         139.6386  140.1699  167.4980 C.ar    1  UNL1        0.0046
     15 C         139.2701  140.2335  168.9506 C.ar    1  UNL1        0.0010
     16 C         139.6186  141.4471  169.7604 C.ar    1  UNL1        0.0114
     17 C         140.3356  142.5971  169.1176 C.ar    1  UNL1        0.0578
     18 CL        140.6841  143.8107  169.9274 Cl      1  UNL1       -0.0822
     19 C         140.7042  142.5336  167.6649 C.ar    1  UNL1        0.0159
     20 C         143.9134  141.5102  158.4560 C.3     1  UNL1        0.0278
     21 C         143.4390  140.2759  159.1640 C.3     1  UNL1        0.1121
     22 N         143.3331  138.9781  158.4195 N.am    1  UNL1       -0.2973
     23 C         142.0359  138.5860  157.7765 C.2     1  UNL1        0.2461
     24 O         140.8445  139.4919  157.8780 O.2     1  UNL1       -0.2701
     25 H         144.1150  138.3836  158.3529 H       1  UNL1        0.1500
     26 C         141.9299  137.2882  157.0320 C.ar    1  UNL1        0.0534
     27 C         142.8917  136.1749  157.3248 C.ar    1  UNL1        0.0054
     28 C         142.7857  134.8770  156.5803 C.ar    1  UNL1        0.0115
     29 C         141.7180  134.6924  155.5429 C.ar    1  UNL1        0.0577
     30 CL        141.6121  133.3946  154.7984 Cl      1  UNL1       -0.0822
     31 C         140.7564  135.8057  155.2501 C.ar    1  UNL1        0.0115
     32 C         140.8623  137.1036  155.9946 C.ar    1  UNL1        0.0054
@<TRIPOS>BOND
     1    21    20    1
     2    21    22    1
     3    22    23   am
     4    23    24    2
     5    23    26    1
     6    26    27   ar
     7    27    28   ar
     8    28    29   ar
     9    29    30    1
    10    29    31   ar
    11    31    32   ar
    12    21     1    1
    13     1     2   ar
    14     2     3   ar
    15     3     4   ar
    16     4     5   ar
    17     5     6   ar
    18     4     7    1
    19     7     8   am
    20     8     9    2
    21     8    13    1
    22    13    14   ar
    23    14    15   ar
    24    15    16   ar
    25    16    17   ar
    26    17    18    1
    27    17    19   ar
    28     7    10    1
    29    10    11    1
    30    11    12    1
    31    32    26   ar
    32     6     1   ar
    33    19    13   ar
    34    12     3    1
    35    22    25    1
@<TRIPOS>MOLECULE
*****
 32 35 0 0 0
SMALL
GASTEIGER

@<TRIPOS>ATOM
      1 C         140.5827  144.4518  158.3254 C.ar    1  UNL1        0.0766
      2 C         140.3333  145.3637  159.4900 C.ar    1  UNL1        0.0134
      3 C         140.1054  144.7894  160.8568 C.ar    1  UNL1       -0.0057
      4 C         140.1268  143.3033  161.0590 C.ar    1  UNL1        0.0693
      5 C         140.3762  142.3914  159.8945 C.ar    1  UNL1        0.1130
      6 N         140.6041  142.9656  158.5277 N.ar    1  UNL1       -0.2452
      7 N         139.8989  142.7290  162.4260 N.am    1  UNL1       -0.2540
      8 C         139.9203  141.2429  162.6282 C.2     1  UNL1        0.2528
      9 O         140.1697  140.3310  161.4636 O.2     1  UNL1       -0.2696
     10 C         139.6496  143.6409  163.5905 C.3     1  UNL1        0.0989
     11 C         139.6281  145.1271  163.3882 C.3     1  UNL1        0.0266
     12 C         139.8561  145.7013  162.0214 C.3     1  UNL1        0.0295
     13 C         139.6924  140.6686  163.9950 C.ar    1  UNL1        0.0547
     14 C         138.3139  140.2490  164.4120 C.ar    1  UNL1        0.0046
     15 C         138.0860  139.6748  165.7788 C.ar    1  UNL1        0.0010
     16 C         139.2365  139.5201  166.7287 C.ar    1  UNL1        0.0114
     17 C         140.6150  139.9397  166.3119 C.ar    1  UNL1        0.0578
     18 CL        141.7655  139.7850  167.2618 Cl      1  UNL1       -0.0822
     19 C         140.8429  140.5139  164.9450 C.ar    1  UNL1        0.0159
     20 C         141.2678  144.1387  155.8389 C.3     1  UNL1        0.0278
     21 C         140.8106  145.0260  156.9585 C.3     1  UNL1        0.1121
     22 N         140.5813  146.4876  156.7113 N.am    1  UNL1       -0.2973
     23 C         139.3792  146.9374  155.9350 C.2     1  UNL1        0.2461
     24 O         138.4064  145.9256  155.4059 O.2     1  UNL1       -0.2701
     25 H         141.2198  147.1517  157.0585 H       1  UNL1        0.1500
     26 C         139.1499  148.3990  155.6877 C.ar    1  UNL1        0.0534
     27 C         138.4722  149.2387  156.7298 C.ar    1  UNL1        0.0054
     28 C         138.2428  150.7003  156.4825 C.ar    1  UNL1        0.0115
     29 C         138.6912  151.3222  155.1933 C.ar    1  UNL1        0.0577
     30 CL        138.4619  152.7838  154.9460 Cl      1  UNL1       -0.0822
     31 C         139.3689  150.4826  154.1513 C.ar    1  UNL1        0.0115
     32 C         139.5982  149.0210  154.3985 C.ar    1  UNL1        0.0054
@<TRIPOS>BOND
     1    21    20    1
     2    21    22    1
     3    22    23   am
     4    23    24    2
     5    23    26    1
     6    26    27   ar
     7    27    28   ar
     8    28    29   ar
     9    29    30    1
    10    29    31   ar
    11    31    32   ar
    12    21     1    1
    13     1     2   ar
    14     2     3   ar
    15     3     4   ar
    16     4     5   ar
    17     5     6   ar
    18     4     7    1
    19     7     8   am
    20     8     9    2
    21     8    13    1
    22    13    14   ar
    23    14    15   ar
    24    15    16   ar
    25    16    17   ar
    26    17    18    1
    27    17    19   ar
    28     7    10    1
    29    10    11    1
    30    11    12    1
    31    32    26   ar
    32     6     1   ar
    33    19    13   ar
    34    12     3    1
    35    22    25    1
@<TRIPOS>MOLECULE
*****
 32 35 0 0 0
SMALL
GASTEIGER

@<TRIPOS>ATOM
      1 C         143.7087  142.8548  162.8916 C.ar    1  UNL1        0.0766
      2 C         142.6528  143.8558  163.2561 C.ar    1  UNL1        0.0134
      3 C         141.8002  144.4700  162.1857 C.ar    1  UNL1       -0.0057
      4 C         142.0036  144.0833  160.7508 C.ar    1  UNL1        0.0693
      5 C         143.0596  143.0823  160.3862 C.ar    1  UNL1        0.1130
      6 N         143.9121  142.4681  161.4566 N.ar    1  UNL1       -0.2452
      7 N         141.1510  144.6976  159.6804 N.am    1  UNL1       -0.2540
      8 C         141.3544  144.3109  158.2454 C.2     1  UNL1        0.2528
      9 O         142.4104  143.3098  157.8809 O.2     1  UNL1       -0.2696
     10 C         140.0950  145.6986  160.0449 C.3     1  UNL1        0.0989
     11 C         139.8916  146.0853  161.4798 C.3     1  UNL1        0.0266
     12 C         140.7442  145.4711  162.5502 C.3     1  UNL1        0.0295
     13 C         140.5019  144.9251  157.1750 C.ar    1  UNL1        0.0547
     14 C         140.8868  146.2448  156.5746 C.ar    1  UNL1        0.0046
     15 C         140.0343  146.8590  155.5042 C.ar    1  UNL1        0.0010
     16 C         138.7967  146.1537  155.0341 C.ar    1  UNL1        0.0114
     17 C         138.4117  144.8341  155.6345 C.ar    1  UNL1        0.0578
     18 CL        137.1742  144.1288  155.1644 Cl      1  UNL1       -0.0822
     19 C         139.2643  144.2198  156.7049 C.ar    1  UNL1        0.0159
     20 C         145.8992  141.6586  163.6135 C.3     1  UNL1        0.0278
     21 C         144.5614  142.2405  163.9620 C.3     1  UNL1        0.1121
     22 N         144.0761  142.2081  165.3810 N.am    1  UNL1       -0.2973
     23 C         143.1195  141.1404  165.8223 C.2     1  UNL1        0.2461
     24 O         142.6481  140.1049  164.8446 O.2     1  UNL1       -0.2701
     25 H         144.3854  142.8877  166.0226 H       1  UNL1        0.1500
     26 C         142.6341  141.1080  167.2412 C.ar    1  UNL1        0.0534
     27 C         142.9910  142.2209  168.1815 C.ar    1  UNL1        0.0054
     28 C         142.5057  142.1886  169.6004 C.ar    1  UNL1        0.0115
     29 C         141.6635  141.0432  170.0791 C.ar    1  UNL1        0.0577
     30 CL        141.1782  141.0108  171.4981 Cl      1  UNL1       -0.0822
     31 C         141.3067  139.9303  169.1388 C.ar    1  UNL1        0.0115
     32 C         141.7921  139.9627  167.7199 C.ar    1  UNL1        0.0054
@<TRIPOS>BOND
     1    21    20    1
     2    21    22    1
     3    22    23   am
     4    23    24    2
     5    23    26    1
     6    26    27   ar
     7    27    28   ar
     8    28    29   ar
     9    29    30    1
    10    29    31   ar
    11    31    32   ar
    12    21     1    1
    13     1     2   ar
    14     2     3   ar
    15     3     4   ar
    16     4     5   ar
    17     5     6   ar
    18     4     7    1
    19     7     8   am
    20     8     9    2
    21     8    13    1
    22    13    14   ar
    23    14    15   ar
    24    15    16   ar
    25    16    17   ar
    26    17    18    1
    27    17    19   ar
    28     7    10    1
    29    10    11    1
    30    11    12    1
    31    32    26   ar
    32     6     1   ar
    33    19    13   ar
    34    12     3    1
    35    22    25    1
@<TRIPOS>MOLECULE
*****
 32 35 0 0 0
SMALL
GASTEIGER

@<TRIPOS>ATOM
      1 C         140.6385  139.2456  159.7288 C.ar    1  UNL1        0.0766
      2 C         139.7275  138.4067  160.5751 C.ar    1  UNL1        0.0134
      3 C         139.7776  138.5195  162.0700 C.ar    1  UNL1       -0.0057
      4 C         140.7387  139.4712  162.7185 C.ar    1  UNL1        0.0693
      5 C         141.6497  140.3100  161.8722 C.ar    1  UNL1        0.1130
      6 N         141.5996  140.1972  160.3773 N.ar    1  UNL1       -0.2452
      7 N         140.7888  139.5839  164.2135 N.am    1  UNL1       -0.2540
      8 C         141.7499  140.5356  164.8621 C.2     1  UNL1        0.2528
      9 O         142.6609  141.3745  164.0156 O.2     1  UNL1       -0.2696
     10 C         139.8778  138.7450  165.0598 C.3     1  UNL1        0.0989
     11 C         138.9167  137.7934  164.4113 C.3     1  UNL1        0.0266
     12 C         138.8666  137.6806  162.9164 C.3     1  UNL1        0.0295
     13 C         141.8000  140.6484  166.3569 C.ar    1  UNL1        0.0547
     14 C         142.5693  139.6415  167.1597 C.ar    1  UNL1        0.0046
     15 C         142.6194  139.7543  168.6546 C.ar    1  UNL1        0.0010
     16 C         141.9002  140.8740  169.3468 C.ar    1  UNL1        0.0114
     17 C         141.1309  141.8808  168.5441 C.ar    1  UNL1        0.0578
     18 CL        140.4118  143.0005  169.2363 Cl      1  UNL1       -0.0822
     19 C         141.0808  141.7681  167.0491 C.ar    1  UNL1        0.0159
     20 C         140.3419  140.3533  157.3975 C.3     1  UNL1        0.0278
     21 C         140.5884  139.1328  158.2338 C.3     1  UNL1        0.1121
     22 N         140.7849  137.7995  157.5753 N.am    1  UNL1       -0.2973
     23 C         142.1622  137.3513  157.1853 C.2     1  UNL1        0.2461
     24 O         143.3431  138.2364  157.4538 O.2     1  UNL1       -0.2701
     25 H         140.0098  137.2185  157.3990 H       1  UNL1        0.1500
     26 C         142.3586  136.0180  156.5268 C.ar    1  UNL1        0.0534
     27 C         143.5587  135.1839  156.8651 C.ar    1  UNL1        0.0054
     28 C         143.7552  133.8506  156.2065 C.ar    1  UNL1        0.0115
     29 C         142.7516  133.3513  155.2097 C.ar    1  UNL1        0.0577
     30 CL        142.9480  132.0180  154.5512 Cl      1  UNL1       -0.0822
     31 C         141.5516  134.1853  154.8715 C.ar    1  UNL1        0.0115
     32 C         141.3551  135.5186  155.5300 C.ar    1  UNL1        0.0054
@<TRIPOS>BOND
     1    21    20    1
     2    21    22    1
     3    22    23   am
     4    23    24    2
     5    23    26    1
     6    26    27   ar
     7    27    28   ar
     8    28    29   ar
     9    29    30    1
    10    29    31   ar
    11    31    32   ar
    12    21     1    1
    13     1     2   ar
    14     2     3   ar
    15     3     4   ar
    16     4     5   ar
    17     5     6   ar
    18     4     7    1
    19     7     8   am
    20     8     9    2
    21     8    13    1
    22    13    14   ar
    23    14    15   ar
    24    15    16   ar
    25    16    17   ar
    26    17    18    1
    27    17    19   ar
    28     7    10    1
    29    10    11    1
    30    11    12    1
    31    32    26   ar
    32     6     1   ar
    33    19    13   ar
    34    12     3    1
    35    22    25    1
@<TRIPOS>MOLECULE
*****
 32 35 0 0 0
SMALL
GASTEIGER

@<TRIPOS>ATOM
      1 C         140.7437  141.0881  160.0207 C.ar    1  UNL1        0.0766
      2 C         139.4394  141.7013  160.4362 C.ar    1  UNL1        0.0134
      3 C         139.1064  141.8407  161.8921 C.ar    1  UNL1       -0.0057
      4 C         140.0777  141.3670  162.9324 C.ar    1  UNL1        0.0693
      5 C         141.3820  140.7539  162.5168 C.ar    1  UNL1        0.1130
      6 N         141.7150  140.6145  161.0609 N.ar    1  UNL1       -0.2452
      7 N         139.7446  141.5065  164.3883 N.am    1  UNL1       -0.2540
      8 C         140.7159  141.0328  165.4286 C.2     1  UNL1        0.2528
      9 O         142.0203  140.4196  165.0130 O.2     1  UNL1       -0.2696
     10 C         138.4403  142.1196  164.8039 C.3     1  UNL1        0.0989
     11 C         137.4690  142.5933  163.7636 C.3     1  UNL1        0.0266
     12 C         137.8020  142.4538  162.3078 C.3     1  UNL1        0.0295
     13 C         140.3829  141.1722  166.8845 C.ar    1  UNL1        0.0547
     14 C         139.7493  140.0297  167.6217 C.ar    1  UNL1        0.0046
     15 C         139.4163  140.1691  169.0776 C.ar    1  UNL1        0.0010
     16 C         139.7168  141.4510  169.7963 C.ar    1  UNL1        0.0114
     17 C         140.3503  142.5934  169.0591 C.ar    1  UNL1        0.0578
     18 CL        140.6507  143.8753  169.7779 Cl      1  UNL1       -0.0822
     19 C         140.6833  142.4541  167.6032 C.ar    1  UNL1        0.0159
     20 C         140.8381  142.0953  157.6275 C.3     1  UNL1        0.0278
     21 C         141.0768  140.9487  158.5647 C.3     1  UNL1        0.1121
     22 N         141.6487  139.6626  158.0460 N.am    1  UNL1       -0.2973
     23 C         140.7464  138.6355  157.4290 C.2     1  UNL1        0.2461
     24 O         139.2722  138.8944  157.3306 O.2     1  UNL1       -0.2701
     25 H         142.6163  139.4927  158.1106 H       1  UNL1        0.1500
     26 C         141.3183  137.3494  156.9103 C.ar    1  UNL1        0.0534
     27 C         140.5932  136.5820  155.8448 C.ar    1  UNL1        0.0054
     28 C         141.1650  135.2959  155.3261 C.ar    1  UNL1        0.0115
     29 C         142.4621  134.7773  155.8730 C.ar    1  UNL1        0.0577
     30 CL        143.0339  133.4913  155.3543 Cl      1  UNL1       -0.0822
     31 C         143.1871  135.5448  156.9384 C.ar    1  UNL1        0.0115
     32 C         142.6152  136.8309  157.4571 C.ar    1  UNL1        0.0054
@<TRIPOS>BOND
     1    21    20    1
     2    21    22    1
     3    22    23   am
     4    23    24    2
     5    23    26    1
     6    26    27   ar
     7    27    28   ar
     8    28    29   ar
     9    29    30    1
    10    29    31   ar
    11    31    32   ar
    12    21     1    1
    13     1     2   ar
    14     2     3   ar
    15     3     4   ar
    16     4     5   ar
    17     5     6   ar
    18     4     7    1
    19     7     8   am
    20     8     9    2
    21     8    13    1
    22    13    14   ar
    23    14    15   ar
    24    15    16   ar
    25    16    17   ar
    26    17    18    1
    27    17    19   ar
    28     7    10    1
    29    10    11    1
    30    11    12    1
    31    32    26   ar
    32     6     1   ar
    33    19    13   ar
    34    12     3    1
    35    22    25    1
@<TRIPOS>MOLECULE
*****
 32 35 0 0 0
SMALL
GASTEIGER

@<TRIPOS>ATOM
      1 C         137.8526  141.2010  157.5094 C.ar    1  UNL1        0.0766
      2 C         138.3081  142.4184  158.2579 C.ar    1  UNL1        0.0134
      3 C         139.1022  142.2684  159.5216 C.ar    1  UNL1       -0.0057
      4 C         139.4407  140.9010  160.0368 C.ar    1  UNL1        0.0693
      5 C         138.9852  139.6835  159.2883 C.ar    1  UNL1        0.1130
      6 N         138.1911  139.8335  158.0246 N.ar    1  UNL1       -0.2452
      7 N         140.2348  140.7510  161.3005 N.am    1  UNL1       -0.2540
      8 C         140.5734  139.3835  161.8157 C.2     1  UNL1        0.2528
      9 O         140.1178  138.1660  161.0672 O.2     1  UNL1       -0.2696
     10 C         140.6903  141.9684  162.0490 C.3     1  UNL1        0.0989
     11 C         140.3518  143.3359  161.5338 C.3     1  UNL1        0.0266
     12 C         139.5577  143.4859  160.2702 C.3     1  UNL1        0.0295
     13 C         141.3674  139.2335  163.0794 C.ar    1  UNL1        0.0547
     14 C         140.6671  138.9587  164.3771 C.ar    1  UNL1        0.0046
     15 C         141.4611  138.8087  165.6408 C.ar    1  UNL1        0.0010
     16 C         142.9555  138.9335  165.6068 C.ar    1  UNL1        0.0114
     17 C         143.6559  139.2082  164.3092 C.ar    1  UNL1        0.0578
     18 CL        145.1503  139.3329  164.2752 Cl      1  UNL1       -0.0822
     19 C         142.8618  139.3582  163.0454 C.ar    1  UNL1        0.0159
     20 C         137.7613  141.4257  154.9227 C.3     1  UNL1        0.0278
     21 C         137.0585  141.3510  156.2457 C.3     1  UNL1        0.1121
     22 N         135.5615  141.4262  156.3050 N.am    1  UNL1       -0.2973
     23 C         134.7348  140.2367  155.9158 C.2     1  UNL1        0.2461
     24 O         135.4050  138.9719  155.4671 O.2     1  UNL1       -0.2701
     25 H         135.1217  142.2563  156.5995 H       1  UNL1        0.1500
     26 C         133.2379  140.3119  155.9751 C.ar    1  UNL1        0.0534
     27 C         132.4627  139.2601  156.7120 C.ar    1  UNL1        0.0054
     28 C         130.9658  139.3353  156.7713 C.ar    1  UNL1        0.0115
     29 C         130.2440  140.4624  156.0938 C.ar    1  UNL1        0.0577
     30 CL        128.7471  140.5376  156.1532 Cl      1  UNL1       -0.0822
     31 C         131.0192  141.5141  155.3570 C.ar    1  UNL1        0.0115
     32 C         132.5161  141.4389  155.2977 C.ar    1  UNL1        0.0054
@<TRIPOS>BOND
     1    21    20    1
     2    21    22    1
     3    22    23   am
     4    23    24    2
     5    23    26    1
     6    26    27   ar
     7    27    28   ar
     8    28    29   ar
     9    29    30    1
    10    29    31   ar
    11    31    32   ar
    12    21     1    1
    13     1     2   ar
    14     2     3   ar
    15     3     4   ar
    16     4     5   ar
    17     5     6   ar
    18     4     7    1
    19     7     8   am
    20     8     9    2
    21     8    13    1
    22    13    14   ar
    23    14    15   ar
    24    15    16   ar
    25    16    17   ar
    26    17    18    1
    27    17    19   ar
    28     7    10    1
    29    10    11    1
    30    11    12    1
    31    32    26   ar
    32     6     1   ar
    33    19    13   ar
    34    12     3    1
    35    22    25    1
@<TRIPOS>MOLECULE
*****
 32 35 0 0 0
SMALL
GASTEIGER

@<TRIPOS>ATOM
      1 C         141.9275  139.9457  160.5349 C.ar    1  UNL1        0.0766
      2 C         143.0002  139.4475  161.4574 C.ar    1  UNL1        0.0134
      3 C         142.8475  139.6079  162.9409 C.ar    1  UNL1       -0.0057
      4 C         141.6222  140.2666  163.5020 C.ar    1  UNL1        0.0693
      5 C         140.5495  140.7648  162.5795 C.ar    1  UNL1        0.1130
      6 N         140.7022  140.6044  161.0959 N.ar    1  UNL1       -0.2452
      7 N         141.4697  140.4271  164.9856 N.am    1  UNL1       -0.2540
      8 C         140.2444  141.0858  165.5466 C.2     1  UNL1        0.2528
      9 O         139.1716  141.5840  164.6240 O.2     1  UNL1       -0.2696
     10 C         142.5424  139.9288  165.9081 C.3     1  UNL1        0.0989
     11 C         143.7677  139.2702  165.3471 C.3     1  UNL1        0.0266
     12 C         143.9203  139.1097  163.8635 C.3     1  UNL1        0.0295
     13 C         140.0917  141.2462  167.0302 C.ar    1  UNL1        0.0547
     14 C         139.5143  140.1304  167.8498 C.ar    1  UNL1        0.0046
     15 C         139.3617  140.2909  169.3333 C.ar    1  UNL1        0.0010
     16 C         139.7865  141.5671  169.9973 C.ar    1  UNL1        0.0114
     17 C         140.3639  142.6829  169.1778 C.ar    1  UNL1        0.0578
     18 CL        140.7886  143.9591  169.8417 Cl      1  UNL1       -0.0822
     19 C         140.5165  142.5224  167.6941 C.ar    1  UNL1        0.0159
     20 C         140.8970  139.4015  158.2128 C.3     1  UNL1        0.0278
     21 C         142.0800  139.7852  159.0513 C.3     1  UNL1        0.1121
     22 N         143.4157  140.0086  158.4062 N.am    1  UNL1       -0.2973
     23 C         143.6881  141.2858  157.6684 C.2     1  UNL1        0.2461
     24 O         142.6248  142.3398  157.5756 O.2     1  UNL1       -0.2701
     25 H         144.1136  139.3168  158.4671 H       1  UNL1        0.1500
     26 C         145.0238  141.5091  157.0233 C.ar    1  UNL1        0.0534
     27 C         145.3967  140.7455  155.7872 C.ar    1  UNL1        0.0054
     28 C         146.7324  140.9688  155.1422 C.ar    1  UNL1        0.0115
     29 C         147.6951  141.9558  155.7332 C.ar    1  UNL1        0.0577
     30 CL        149.0308  142.1791  155.0881 Cl      1  UNL1       -0.0822
     31 C         147.3221  142.7193  156.9692 C.ar    1  UNL1        0.0115
     32 C         145.9864  142.4960  157.6143 C.ar    1  UNL1        0.0054
@<TRIPOS>BOND
     1    21    20    1
     2    21    22    1
     3    22    23   am
     4    23    24    2
     5    23    26    1
     6    26    27   ar
     7    27    28   ar
     8    28    29   ar
     9    29    30    1
    10    29    31   ar
    11    31    32   ar
    12    21     1    1
    13     1     2   ar
    14     2     3   ar
    15     3     4   ar
    16     4     5   ar
    17     5     6   ar
    18     4     7    1
    19     7     8   am
    20     8     9    2
    21     8    13    1
    22    13    14   ar
    23    14    15   ar
    24    15    16   ar
    25    16    17   ar
    26    17    18    1
    27    17    19   ar
    28     7    10    1
    29    10    11    1
    30    11    12    1
    31    32    26   ar
    32     6     1   ar
    33    19    13   ar
    34    12     3    1
    35    22    25    1
