@<TRIPOS>MOLECULE
*****
 33 37 0 0 0
SMALL
GASTEIGER

@<TRIPOS>ATOM
      1 C         141.6867  141.6932  164.9187 C.3     1  UNL1        0.0048
      2 C         140.5773  140.6864  164.9954 C.3     1  UNL1        0.0249
      3 C         139.9834  140.3246  166.3244 C.2     1  UNL1       -0.0078
      4 C         138.8740  139.3179  166.4010 C.2     1  UNL1        0.0546
      5 N         138.4881  139.1622  167.8421 N.2     1  UNL1       -0.2540
      6 C         139.3589  140.0727  168.6561 C.2     1  UNL1        0.0626
      7 C         139.4298  140.3405  170.1303 C.3     1  UNL1        0.0716
      8 C         140.4248  141.3266  170.6665 C.2     1  UNL1       -0.0159
      9 C         141.3489  142.0450  169.7284 C.2     1  UNL1        0.0676
     10 C         141.2780  141.7773  168.2543 C.2     1  UNL1        0.0044
     11 C         140.2831  140.7911  167.7181 C.2     1  UNL1        0.0110
     12 C         138.3586  138.6730  165.1486 C.3     1  UNL1        0.0456
     13 C         138.9526  139.0348  163.8196 C.3     1  UNL1        0.0089
     14 C         138.4372  138.3899  162.5672 C.3     1  UNL1        0.0178
     15 C         139.0311  138.7517  161.2381 C.3     1  UNL1        0.0721
     16 N         140.1404  139.7584  161.1615 N.3     1  UNL1       -0.2727
     17 C         140.6559  140.4034  162.4139 C.3     1  UNL1        0.0724
     18 C         140.0619  140.0415  163.7429 C.3     1  UNL1        0.0205
     19 C         142.3439  143.0312  170.2647 C.3     1  UNL1        0.4183
     20 F         143.3388  144.0174  170.8008 F       1  UNL1       -0.1659
     21 F         143.3609  141.9360  170.3920 F       1  UNL1       -0.1659
     22 F         141.3270  144.1264  170.1373 F       1  UNL1       -0.1659
     23 C         140.7344  140.1203  159.8325 C.3     1  UNL1        0.0725
     24 C         140.1361  141.2309  159.0209 C.3     1  UNL1        0.0227
     25 C         140.2864  142.6538  159.4711 C.3     1  UNL1        0.0382
     26 C         141.7265  142.2971  159.2499 C.3     1  UNL1        0.0374
     27 C         142.7986  143.3155  159.5014 C.3     1  UNL1        0.1425
     28 O         142.4307  144.6907  159.9742 O.3     1  UNL1       -0.3538
     29 C         140.9905  145.0474  160.1954 C.3     1  UNL1        0.1425
     30 C         139.9185  144.0289  159.9439 C.3     1  UNL1        0.0374
     31 C         138.7941  142.5163  159.5360 C.2     1  UNL1        0.0498
     32 O         138.0436  143.0406  160.7242 O.co2   1  UNL1       -0.5492
     33 O         138.0523  141.8545  158.4127 O.co2   1  UNL1       -0.5492
@<TRIPOS>UNITY_ATOM_ATTR
32 1
charge -1
@<TRIPOS>BOND
     1     2     1    1
     2     2     3    1
     3     3     4    2
     4     4     5    1
     5     5     6    2
     6     6     7    1
     7     7     8    1
     8     8     9    2
     9     9    19    1
    10    19    20    1
    11    19    21    1
    12    19    22    1
    13     9    10    1
    14    10    11    2
    15     4    12    1
    16    13    12    1
    17    13    14    1
    18    14    15    1
    19    15    16    1
    20    16    23    1
    21    23    24    1
    22    24    25    1
    23    25    31    1
    24    31    32   ar
    25    31    33   ar
    26    25    26    1
    27    26    27    1
    28    27    28    1
    29    28    29    1
    30    29    30    1
    31    16    17    1
    32    18    17    1
    33    18     2    1
    34    11     3    1
    35    18    13    1
    36    11     6    1
    37    30    25    1
@<TRIPOS>MOLECULE
*****
 33 37 0 0 0
SMALL
GASTEIGER

@<TRIPOS>ATOM
      1 C         140.8766  143.0895  165.1159 C.3     1  UNL1        0.0048
      2 C         139.9721  141.8929  165.1078 C.3     1  UNL1        0.0249
      3 C         139.7855  141.0853  166.3580 C.2     1  UNL1       -0.0078
      4 C         138.8809  139.8887  166.3499 C.2     1  UNL1        0.0546
      5 N         138.8932  139.2891  167.7248 N.2     1  UNL1       -0.2540
      6 C         139.8052  140.1151  168.5826 C.2     1  UNL1        0.0626
      7 C         140.2048  139.9998  170.0238 C.3     1  UNL1        0.0716
      8 C         141.1559  140.9946  170.6202 C.2     1  UNL1       -0.0159
      9 C         141.7073  142.1048  169.7755 C.2     1  UNL1        0.0676
     10 C         141.3077  142.2200  168.3343 C.2     1  UNL1        0.0044
     11 C         140.3567  141.2252  167.7379 C.2     1  UNL1        0.0110
     12 C         138.1630  139.4997  165.0916 C.3     1  UNL1        0.0456
     13 C         138.3497  140.3073  163.8414 C.3     1  UNL1        0.0089
     14 C         137.6318  139.9183  162.5831 C.3     1  UNL1        0.0178
     15 C         137.8184  140.7259  161.3329 C.3     1  UNL1        0.0721
     16 N         138.7229  141.9225  161.3410 N.3     1  UNL1       -0.2727
     17 C         139.4408  142.3115  162.5993 C.3     1  UNL1        0.0724
     18 C         139.2542  141.5039  163.8495 C.3     1  UNL1        0.0205
     19 C         142.6584  143.0996  170.3720 C.3     1  UNL1        0.4183
     20 F         143.6095  144.0944  170.9685 F       1  UNL1       -0.1659
     21 F         141.5876  144.1491  170.3292 F       1  UNL1       -0.1659
     22 F         143.7292  142.0501  170.4149 F       1  UNL1       -0.1659
     23 C         138.9095  142.7301  160.0908 C.3     1  UNL1        0.0725
     24 C         140.2671  143.2604  159.7362 C.3     1  UNL1        0.0227
     25 C         140.3968  144.4164  158.7891 C.3     1  UNL1        0.0382
     26 C         140.0732  143.3196  157.8185 C.3     1  UNL1        0.0374
     27 C         139.9760  143.6202  156.3521 C.3     1  UNL1        0.1425
     28 O         140.2025  145.0177  155.8564 O.3     1  UNL1       -0.3538
     29 C         140.5261  146.1146  156.8271 C.3     1  UNL1        0.1425
     30 C         140.6233  145.8139  158.2934 C.3     1  UNL1        0.0374
     31 C         140.6754  145.1118  160.0887 C.2     1  UNL1        0.0498
     32 O         139.6764  146.0792  160.6509 O.co2   1  UNL1       -0.5492
     33 O         141.9530  144.8398  160.8261 O.co2   1  UNL1       -0.5492
@<TRIPOS>UNITY_ATOM_ATTR
32 1
charge -1
@<TRIPOS>BOND
     1     2     1    1
     2     2     3    1
     3     3     4    2
     4     4     5    1
     5     5     6    2
     6     6     7    1
     7     7     8    1
     8     8     9    2
     9     9    19    1
    10    19    20    1
    11    19    21    1
    12    19    22    1
    13     9    10    1
    14    10    11    2
    15     4    12    1
    16    13    12    1
    17    13    14    1
    18    14    15    1
    19    15    16    1
    20    16    23    1
    21    23    24    1
    22    24    25    1
    23    25    31    1
    24    31    32   ar
    25    31    33   ar
    26    25    26    1
    27    26    27    1
    28    27    28    1
    29    28    29    1
    30    29    30    1
    31    16    17    1
    32    18    17    1
    33    18     2    1
    34    11     3    1
    35    18    13    1
    36    11     6    1
    37    30    25    1
@<TRIPOS>MOLECULE
*****
 33 37 0 0 0
SMALL
GASTEIGER

@<TRIPOS>ATOM
      1 C         141.7220  141.4951  164.9783 C.3     1  UNL1        0.0048
      2 C         140.6164  140.4845  165.0586 C.3     1  UNL1        0.0249
      3 C         139.9638  140.1899  166.3766 C.2     1  UNL1       -0.0078
      4 C         138.8582  139.1793  166.4568 C.2     1  UNL1        0.0546
      5 N         138.4069  139.0985  167.8850 N.2     1  UNL1       -0.2540
      6 C         139.2335  140.0592  168.6875 C.2     1  UNL1        0.0626
      7 C         139.2343  140.4069  170.1466 C.3     1  UNL1        0.0716
      8 C         140.1974  141.4291  170.6734 C.2     1  UNL1       -0.0159
      9 C         141.1596  142.1036  169.7412 C.2     1  UNL1        0.0676
     10 C         141.1587  141.7559  168.2820 C.2     1  UNL1        0.0044
     11 C         140.1957  140.7337  167.7552 C.2     1  UNL1        0.0110
     12 C         138.4053  138.4633  165.2190 C.3     1  UNL1        0.0456
     13 C         139.0580  138.7578  163.9010 C.3     1  UNL1        0.0089
     14 C         138.6051  138.0417  162.6632 C.3     1  UNL1        0.0178
     15 C         139.2578  138.3362  161.3451 C.3     1  UNL1        0.0721
     16 N         140.3633  139.3468  161.2649 N.3     1  UNL1       -0.2727
     17 C         140.8163  140.0629  162.5027 C.3     1  UNL1        0.0724
     18 C         140.1635  139.7684  163.8208 C.3     1  UNL1        0.0205
     19 C         142.1226  143.1259  170.2681 C.3     1  UNL1        0.4183
     20 F         143.0856  144.1481  170.7949 F       1  UNL1       -0.1659
     21 F         143.1339  142.0459  170.5151 F       1  UNL1       -0.1659
     22 F         141.1114  144.2058  170.0210 F       1  UNL1       -0.1659
     23 C         141.0161  139.6414  159.9468 C.3     1  UNL1        0.0725
     24 C         142.5118  139.6889  159.8446 C.3     1  UNL1        0.0227
     25 C         143.2711  140.8180  160.4759 C.3     1  UNL1        0.0382
     26 C         142.3282  141.5934  159.6044 C.3     1  UNL1        0.0374
     27 C         142.3804  143.0925  159.5907 C.3     1  UNL1        0.1425
     28 O         143.3756  143.8161  160.4485 O.3     1  UNL1       -0.3538
     29 C         144.3187  143.0407  161.3200 C.3     1  UNL1        0.1425
     30 C         144.2664  141.5417  161.3337 C.3     1  UNL1        0.0374
     31 C         143.9505  139.6505  161.1281 C.2     1  UNL1        0.0498
     32 O         144.2231  138.4045  160.3387 O.co2   1  UNL1       -0.5492
     33 O         144.3572  139.7290  162.5698 O.co2   1  UNL1       -0.5492
@<TRIPOS>UNITY_ATOM_ATTR
32 1
charge -1
@<TRIPOS>BOND
     1     2     1    1
     2     2     3    1
     3     3     4    2
     4     4     5    1
     5     5     6    2
     6     6     7    1
     7     7     8    1
     8     8     9    2
     9     9    19    1
    10    19    20    1
    11    19    21    1
    12    19    22    1
    13     9    10    1
    14    10    11    2
    15     4    12    1
    16    13    12    1
    17    13    14    1
    18    14    15    1
    19    15    16    1
    20    16    23    1
    21    23    24    1
    22    24    25    1
    23    25    31    1
    24    31    32   ar
    25    31    33   ar
    26    25    26    1
    27    26    27    1
    28    27    28    1
    29    28    29    1
    30    29    30    1
    31    16    17    1
    32    18    17    1
    33    18     2    1
    34    11     3    1
    35    18    13    1
    36    11     6    1
    37    30    25    1
@<TRIPOS>MOLECULE
*****
 33 37 0 0 0
SMALL
GASTEIGER

@<TRIPOS>ATOM
      1 C         142.2802  141.0482  165.0381 C.3     1  UNL1        0.0048
      2 C         141.0578  140.1790  165.0547 C.3     1  UNL1        0.0249
      3 C         140.2620  140.0278  166.3172 C.2     1  UNL1       -0.0078
      4 C         139.0397  139.1586  166.3337 C.2     1  UNL1        0.0546
      5 N         138.4593  139.2013  167.7162 N.2     1  UNL1       -0.2540
      6 C         139.3229  140.0969  168.5541 C.2     1  UNL1        0.0626
      7 C         139.2387  140.5132  169.9927 C.3     1  UNL1        0.0716
      8 C         140.2687  141.4404  170.5666 C.2     1  UNL1       -0.0159
      9 C         141.3829  141.9512  169.7019 C.2     1  UNL1        0.0676
     10 C         141.4671  141.5349  168.2634 C.2     1  UNL1        0.0044
     11 C         140.4371  140.6077  167.6895 C.2     1  UNL1        0.0110
     12 C         138.6130  138.4405  165.0877 C.3     1  UNL1        0.0456
     13 C         139.4088  138.5917  163.8253 C.3     1  UNL1        0.0089
     14 C         138.9822  137.8736  162.5793 C.3     1  UNL1        0.0178
     15 C         139.7779  138.0248  161.3168 C.3     1  UNL1        0.0721
     16 N         141.0003  138.8940  161.3003 N.3     1  UNL1       -0.2727
     17 C         141.4270  139.6121  162.5462 C.3     1  UNL1        0.0724
     18 C         140.6312  139.4609  163.8087 C.3     1  UNL1        0.0205
     19 C         142.4129  142.8785  170.2759 C.3     1  UNL1        0.4183
     20 F         143.4428  143.8057  170.8499 F       1  UNL1       -0.1659
     21 F         143.3771  141.7354  170.3923 F       1  UNL1       -0.1659
     22 F         141.4487  144.0215  170.1596 F       1  UNL1       -0.1659
     23 C         141.7961  139.0452  160.0377 C.3     1  UNL1        0.0725
     24 C         143.2068  139.5515  160.0965 C.3     1  UNL1        0.0227
     25 C         143.6632  140.6128  159.1398 C.3     1  UNL1        0.0382
     26 C         143.2383  139.5518  158.1684 C.3     1  UNL1        0.0374
     27 C         143.3622  139.7926  156.6930 C.3     1  UNL1        0.1425
     28 O         143.9111  141.0944  156.1891 O.3     1  UNL1       -0.3538
     29 C         144.3361  142.1555  157.1605 C.3     1  UNL1        0.1425
     30 C         144.2121  141.9147  158.6358 C.3     1  UNL1        0.0374
     31 C         143.9297  141.3053  160.4435 C.2     1  UNL1        0.0498
     32 O         144.6029  140.5660  161.5615 O.co2   1  UNL1       -0.5492
     33 O         143.5228  142.7371  160.6290 O.co2   1  UNL1       -0.5492
@<TRIPOS>UNITY_ATOM_ATTR
32 1
charge -1
@<TRIPOS>BOND
     1     2     1    1
     2     2     3    1
     3     3     4    2
     4     4     5    1
     5     5     6    2
     6     6     7    1
     7     7     8    1
     8     8     9    2
     9     9    19    1
    10    19    20    1
    11    19    21    1
    12    19    22    1
    13     9    10    1
    14    10    11    2
    15     4    12    1
    16    13    12    1
    17    13    14    1
    18    14    15    1
    19    15    16    1
    20    16    23    1
    21    23    24    1
    22    24    25    1
    23    25    31    1
    24    31    32   ar
    25    31    33   ar
    26    25    26    1
    27    26    27    1
    28    27    28    1
    29    28    29    1
    30    29    30    1
    31    16    17    1
    32    18    17    1
    33    18     2    1
    34    11     3    1
    35    18    13    1
    36    11     6    1
    37    30    25    1
@<TRIPOS>MOLECULE
*****
 33 37 0 0 0
SMALL
GASTEIGER

@<TRIPOS>ATOM
      1 C         141.8080  141.5350  164.8912 C.3     1  UNL1        0.0048
      2 C         140.6946  140.5311  164.9452 C.3     1  UNL1        0.0249
      3 C         140.0318  140.2158  166.2533 C.2     1  UNL1       -0.0078
      4 C         138.9186  139.2120  166.3072 C.2     1  UNL1        0.0546
      5 N         138.4579  139.1067  167.7308 N.2     1  UNL1       -0.2540
      6 C         139.2865  140.0455  168.5568 C.2     1  UNL1        0.0626
      7 C         139.2809  140.3647  170.0223 C.3     1  UNL1        0.0716
      8 C         140.2480  141.3694  170.5748 C.2     1  UNL1       -0.0159
      9 C         141.2207  142.0549  169.6616 C.2     1  UNL1        0.0676
     10 C         141.2263  141.7357  168.1960 C.2     1  UNL1        0.0044
     11 C         140.2592  140.7310  167.6436 C.2     1  UNL1        0.0110
     12 C         138.4681  138.5234  165.0530 C.3     1  UNL1        0.0456
     13 C         139.1310  138.8387  163.7448 C.3     1  UNL1        0.0089
     14 C         138.6805  138.1501  162.4906 C.3     1  UNL1        0.0178
     15 C         139.3434  138.4655  161.1825 C.3     1  UNL1        0.0721
     16 N         140.4566  139.4693  161.1286 N.3     1  UNL1       -0.2727
     17 C         140.9071  140.1579  162.3828 C.3     1  UNL1        0.0724
     18 C         140.2442  139.8426  163.6909 C.3     1  UNL1        0.0205
     19 C         142.1879  143.0597  170.2141 C.3     1  UNL1        0.4183
     20 F         143.1549  144.0644  170.7665 F       1  UNL1       -0.1659
     21 F         143.2131  141.9783  170.3860 F       1  UNL1       -0.1659
     22 F         141.1626  144.1410  170.0421 F       1  UNL1       -0.1659
     23 C         141.1195  139.7847  159.8204 C.3     1  UNL1        0.0725
     24 C         140.8279  141.0814  159.1252 C.3     1  UNL1        0.0227
     25 C         139.4984  141.2957  158.4645 C.3     1  UNL1        0.0382
     26 C         139.9439  140.0510  157.7558 C.3     1  UNL1        0.0374
     27 C         139.0655  139.4270  156.7122 C.3     1  UNL1        0.1425
     28 O         137.7417  140.0477  156.3773 O.3     1  UNL1       -0.3538
     29 C         137.2962  141.2924  157.0860 C.3     1  UNL1        0.1425
     30 C         138.1746  141.9164  158.1296 C.3     1  UNL1        0.0374
     31 C         139.5146  142.4660  159.4027 C.2     1  UNL1        0.0498
     32 O         138.2656  142.8573  160.1353 O.co2   1  UNL1       -0.5492
     33 O         140.7799  143.2450  159.6082 O.co2   1  UNL1       -0.5492
@<TRIPOS>UNITY_ATOM_ATTR
32 1
charge -1
@<TRIPOS>BOND
     1     2     1    1
     2     2     3    1
     3     3     4    2
     4     4     5    1
     5     5     6    2
     6     6     7    1
     7     7     8    1
     8     8     9    2
     9     9    19    1
    10    19    20    1
    11    19    21    1
    12    19    22    1
    13     9    10    1
    14    10    11    2
    15     4    12    1
    16    13    12    1
    17    13    14    1
    18    14    15    1
    19    15    16    1
    20    16    23    1
    21    23    24    1
    22    24    25    1
    23    25    31    1
    24    31    32   ar
    25    31    33   ar
    26    25    26    1
    27    26    27    1
    28    27    28    1
    29    28    29    1
    30    29    30    1
    31    16    17    1
    32    18    17    1
    33    18     2    1
    34    11     3    1
    35    18    13    1
    36    11     6    1
    37    30    25    1
@<TRIPOS>MOLECULE
*****
 33 37 0 0 0
SMALL
GASTEIGER

@<TRIPOS>ATOM
      1 C         138.0524  140.5173  161.9792 C.3     1  UNL1        0.0048
      2 C         138.9497  141.6799  162.2851 C.3     1  UNL1        0.0249
      3 C         139.4846  141.8694  163.6736 C.2     1  UNL1       -0.0078
      4 C         140.3818  143.0320  163.9794 C.2     1  UNL1        0.0546
      5 N         140.7539  142.9610  165.4308 N.2     1  UNL1       -0.2540
      6 C         140.0867  141.7547  166.0220 C.2     1  UNL1        0.0626
      7 C         140.0921  141.1834  167.4088 C.3     1  UNL1        0.0716
      8 C         139.3130  139.9374  167.7097 C.2     1  UNL1       -0.0159
      9 C         138.5286  139.2627  166.6237 C.2     1  UNL1        0.0676
     10 C         138.5232  139.8340  165.2368 C.2     1  UNL1        0.0044
     11 C         139.3022  141.0800  164.9359 C.2     1  UNL1        0.0110
     12 C         140.7440  144.0050  162.8967 C.3     1  UNL1        0.0456
     13 C         140.2091  143.8154  161.5083 C.3     1  UNL1        0.0089
     14 C         140.5713  144.7884  160.4256 C.3     1  UNL1        0.0178
     15 C         140.0364  144.5988  159.0371 C.3     1  UNL1        0.0721
     16 N         139.1392  143.4363  158.7313 N.3     1  UNL1       -0.2727
     17 C         138.7769  142.4633  159.8139 C.3     1  UNL1        0.0724
     18 C         139.3119  142.6529  161.2025 C.3     1  UNL1        0.0205
     19 C         137.7495  138.0167  166.9246 C.3     1  UNL1        0.4183
     20 F         136.9705  136.7707  167.2255 F       1  UNL1       -0.1659
     21 F         137.1813  138.6679  168.1506 F       1  UNL1       -0.1659
     22 F         138.3176  137.3654  165.6987 F       1  UNL1       -0.1659
     23 C         138.6042  143.2467  157.3428 C.3     1  UNL1        0.0725
     24 C         137.3552  142.4456  157.1232 C.3     1  UNL1        0.0227
     25 C         136.8275  142.2450  155.7335 C.3     1  UNL1        0.0382
     26 C         137.2353  143.6862  155.6517 C.3     1  UNL1        0.0374
     27 C         137.0375  144.4505  154.3763 C.3     1  UNL1        0.1425
     28 O         136.4318  143.7735  153.1826 O.3     1  UNL1       -0.3538
     29 C         136.0240  142.3323  153.2643 C.3     1  UNL1        0.1425
     30 C         136.2219  141.5681  154.5398 C.3     1  UNL1        0.0374
     31 C         136.6029  140.8735  156.2979 C.2     1  UNL1        0.0498
     32 O         137.7734  139.9836  156.5944 O.co2   1  UNL1       -0.5492
     33 O         135.2078  140.3919  156.5657 O.co2   1  UNL1       -0.5492
@<TRIPOS>UNITY_ATOM_ATTR
32 1
charge -1
@<TRIPOS>BOND
     1     2     1    1
     2     2     3    1
     3     3     4    2
     4     4     5    1
     5     5     6    2
     6     6     7    1
     7     7     8    1
     8     8     9    2
     9     9    19    1
    10    19    20    1
    11    19    21    1
    12    19    22    1
    13     9    10    1
    14    10    11    2
    15     4    12    1
    16    13    12    1
    17    13    14    1
    18    14    15    1
    19    15    16    1
    20    16    23    1
    21    23    24    1
    22    24    25    1
    23    25    31    1
    24    31    32   ar
    25    31    33   ar
    26    25    26    1
    27    26    27    1
    28    27    28    1
    29    28    29    1
    30    29    30    1
    31    16    17    1
    32    18    17    1
    33    18     2    1
    34    11     3    1
    35    18    13    1
    36    11     6    1
    37    30    25    1
@<TRIPOS>MOLECULE
*****
 33 37 0 0 0
SMALL
GASTEIGER

@<TRIPOS>ATOM
      1 C         141.3697  142.5312  164.9560 C.3     1  UNL1        0.0048
      2 C         142.1864  141.2746  164.8912 C.3     1  UNL1        0.0249
      3 C         142.4322  140.4748  166.1361 C.2     1  UNL1       -0.0078
      4 C         143.2488  139.2183  166.0713 C.2     1  UNL1        0.0546
      5 N         143.3227  138.6417  167.4540 N.2     1  UNL1       -0.2540
      6 C         142.5518  139.5419  168.3735 C.2     1  UNL1        0.0626
      7 C         142.2798  139.4762  169.8471 C.3     1  UNL1        0.0716
      8 C         141.4575  140.5436  170.5062 C.2     1  UNL1       -0.0159
      9 C         140.9071  141.6765  169.6917 C.2     1  UNL1        0.0676
     10 C         141.1790  141.7422  168.2181 C.2     1  UNL1        0.0044
     11 C         142.0014  140.6748  167.5589 C.2     1  UNL1        0.0110
     12 C         143.8197  138.7616  164.7615 C.3     1  UNL1        0.0456
     13 C         143.5738  139.5613  163.5165 C.3     1  UNL1        0.0089
     14 C         144.1447  139.1046  162.2067 C.3     1  UNL1        0.0178
     15 C         143.8988  139.9043  160.9618 C.3     1  UNL1        0.0721
     16 N         143.0822  141.1608  161.0266 N.3     1  UNL1       -0.2727
     17 C         142.5113  141.6177  162.3364 C.3     1  UNL1        0.0724
     18 C         142.7572  140.8178  163.5814 C.3     1  UNL1        0.0205
     19 C         140.0847  142.7439  170.3509 C.3     1  UNL1        0.4183
     20 F         139.2623  143.8112  171.0101 F       1  UNL1       -0.1659
     21 F         141.2545  143.6810  170.2930 F       1  UNL1       -0.1659
     22 F         138.9149  141.8068  170.4088 F       1  UNL1       -0.1659
     23 C         142.8363  141.9607  159.7816 C.3     1  UNL1        0.0725
     24 C         141.6541  142.8804  159.7023 C.3     1  UNL1        0.0227
     25 C         141.7073  144.0963  158.8255 C.3     1  UNL1        0.0382
     26 C         142.2190  143.0618  157.8675 C.3     1  UNL1        0.0374
     27 C         142.5998  143.4558  156.4712 C.3     1  UNL1        0.1425
     28 O         142.4689  144.8843  156.0329 O.3     1  UNL1       -0.3538
     29 C         141.9571  145.9189  156.9909 C.3     1  UNL1        0.1425
     30 C         141.5764  145.5249  158.3872 C.3     1  UNL1        0.0374
     31 C         141.1771  144.7086  160.0881 C.2     1  UNL1        0.0498
     32 O         142.0908  144.9257  161.2577 O.co2   1  UNL1       -0.5492
     33 O         139.7330  145.1039  160.1810 O.co2   1  UNL1       -0.5492
@<TRIPOS>UNITY_ATOM_ATTR
32 1
charge -1
@<TRIPOS>BOND
     1     2     1    1
     2     2     3    1
     3     3     4    2
     4     4     5    1
     5     5     6    2
     6     6     7    1
     7     7     8    1
     8     8     9    2
     9     9    19    1
    10    19    20    1
    11    19    21    1
    12    19    22    1
    13     9    10    1
    14    10    11    2
    15     4    12    1
    16    13    12    1
    17    13    14    1
    18    14    15    1
    19    15    16    1
    20    16    23    1
    21    23    24    1
    22    24    25    1
    23    25    31    1
    24    31    32   ar
    25    31    33   ar
    26    25    26    1
    27    26    27    1
    28    27    28    1
    29    28    29    1
    30    29    30    1
    31    16    17    1
    32    18    17    1
    33    18     2    1
    34    11     3    1
    35    18    13    1
    36    11     6    1
    37    30    25    1
@<TRIPOS>MOLECULE
*****
 33 37 0 0 0
SMALL
GASTEIGER

@<TRIPOS>ATOM
      1 C         139.4358  137.9867  162.0733 C.3     1  UNL1        0.0048
      2 C         140.6134  138.9157  162.0922 C.3     1  UNL1        0.0249
      3 C         140.9799  139.6366  163.3555 C.2     1  UNL1       -0.0078
      4 C         142.1575  140.5656  163.3743 C.2     1  UNL1        0.0546
      5 N         142.2772  141.1342  164.7571 N.2     1  UNL1       -0.2540
      6 C         141.1736  140.5567  165.5930 C.2     1  UNL1        0.0626
      7 C         140.7952  140.7541  167.0310 C.3     1  UNL1        0.0716
      8 C         139.6150  140.0259  167.6026 C.2     1  UNL1       -0.0159
      9 C         138.8133  139.1003  166.7364 C.2     1  UNL1        0.0676
     10 C         139.1916  138.9030  165.2984 C.2     1  UNL1        0.0044
     11 C         140.3718  139.6312  164.7267 C.2     1  UNL1        0.0110
     12 C         142.9686  140.7736  162.1298 C.3     1  UNL1        0.0456
     13 C         142.6021  140.0527  160.8664 C.3     1  UNL1        0.0089
     14 C         143.4133  140.2608  159.6219 C.3     1  UNL1        0.0178
     15 C         143.0468  139.5399  158.3586 C.3     1  UNL1        0.0721
     16 N         141.8692  138.6109  158.3398 N.3     1  UNL1       -0.2727
     17 C         141.0581  138.4028  159.5843 C.3     1  UNL1        0.0724
     18 C         141.4246  139.1238  160.8476 C.3     1  UNL1        0.0205
     19 C         137.6330  138.3721  167.3081 C.3     1  UNL1        0.4183
     20 F         136.4529  137.6439  167.8798 F       1  UNL1       -0.1659
     21 F         137.6554  139.2757  168.5052 F       1  UNL1       -0.1659
     22 F         137.6107  137.4686  166.1111 F       1  UNL1       -0.1659
     23 C         141.5027  137.8900  157.0764 C.3     1  UNL1        0.0725
     24 C         142.5254  137.7051  155.9947 C.3     1  UNL1        0.0227
     25 C         142.4315  136.5304  155.0668 C.3     1  UNL1        0.0382
     26 C         141.1302  137.2099  154.7591 C.3     1  UNL1        0.0374
     27 C         140.1982  136.6204  153.7423 C.3     1  UNL1        0.1425
     28 O         140.5676  135.3513  153.0331 O.3     1  UNL1       -0.3538
     29 C         141.8690  134.6717  153.3408 C.3     1  UNL1        0.1425
     30 C         142.8009  135.2613  154.3576 C.3     1  UNL1        0.0374
     31 C         143.7655  136.2588  155.6967 C.2     1  UNL1        0.0498
     32 O         143.9980  134.9751  156.4369 O.co2   1  UNL1       -0.5492
     33 O         144.8670  137.2710  155.5864 O.co2   1  UNL1       -0.5492
@<TRIPOS>UNITY_ATOM_ATTR
32 1
charge -1
@<TRIPOS>BOND
     1     2     1    1
     2     2     3    1
     3     3     4    2
     4     4     5    1
     5     5     6    2
     6     6     7    1
     7     7     8    1
     8     8     9    2
     9     9    19    1
    10    19    20    1
    11    19    21    1
    12    19    22    1
    13     9    10    1
    14    10    11    2
    15     4    12    1
    16    13    12    1
    17    13    14    1
    18    14    15    1
    19    15    16    1
    20    16    23    1
    21    23    24    1
    22    24    25    1
    23    25    31    1
    24    31    32   ar
    25    31    33   ar
    26    25    26    1
    27    26    27    1
    28    27    28    1
    29    28    29    1
    30    29    30    1
    31    16    17    1
    32    18    17    1
    33    18     2    1
    34    11     3    1
    35    18    13    1
    36    11     6    1
    37    30    25    1
@<TRIPOS>MOLECULE
*****
 33 37 0 0 0
SMALL
GASTEIGER

@<TRIPOS>ATOM
      1 C         142.2158  142.0606  161.8738 C.3     1  UNL1        0.0048
      2 C         141.2626  143.2076  162.0352 C.3     1  UNL1        0.0249
      3 C         141.0116  144.1413  160.8884 C.2     1  UNL1       -0.0078
      4 C         140.0586  145.2883  161.0499 C.2     1  UNL1        0.0546
      5 N         140.0117  146.0383  159.7517 N.2     1  UNL1       -0.2540
      6 C         140.9359  145.3548  158.7879 C.2     1  UNL1        0.0626
      7 C         141.2945  145.6486  157.3614 C.3     1  UNL1        0.0716
      8 C         142.2711  144.7700  156.6374 C.2     1  UNL1       -0.0159
      9 C         142.8891  143.5976  157.3399 C.2     1  UNL1        0.0676
     10 C         142.5305  143.3038  158.7665 C.2     1  UNL1        0.0044
     11 C         141.5539  144.1824  159.4905 C.2     1  UNL1        0.0110
     12 C         139.3565  145.5015  162.3582 C.3     1  UNL1        0.0456
     13 C         139.6075  144.5678  163.5050 C.3     1  UNL1        0.0089
     14 C         138.9054  144.7811  164.8133 C.3     1  UNL1        0.0178
     15 C         139.1564  143.8474  165.9601 C.3     1  UNL1        0.0721
     16 N         140.1095  142.7005  165.7986 N.3     1  UNL1       -0.2727
     17 C         140.8116  142.4871  164.4904 C.3     1  UNL1        0.0724
     18 C         140.5606  143.4209  163.3435 C.3     1  UNL1        0.0205
     19 C         143.8657  142.7189  156.6159 C.3     1  UNL1        0.4183
     20 F         144.8423  141.8404  155.8918 F       1  UNL1       -0.1659
     21 F         144.7617  142.7235  157.8188 F       1  UNL1       -0.1659
     22 F         142.9697  142.7144  155.4129 F       1  UNL1       -0.1659
     23 C         140.3605  141.7667  166.9455 C.3     1  UNL1        0.0725
     24 C         139.6211  140.4642  167.0279 C.3     1  UNL1        0.0227
     25 C         139.9679  139.3444  166.0921 C.3     1  UNL1        0.0382
     26 C         141.3218  139.6280  166.6721 C.3     1  UNL1        0.0374
     27 C         142.5106  138.8283  166.2278 C.3     1  UNL1        0.1425
     28 O         142.3455  137.7451  165.2034 O.3     1  UNL1       -0.3538
     29 C         140.9915  137.4615  164.6234 C.3     1  UNL1        0.1425
     30 C         139.8028  138.2612  165.0677 C.3     1  UNL1        0.0374
     31 C         138.4935  139.4497  165.8370 C.2     1  UNL1        0.0498
     32 O         137.9888  140.2537  164.6757 O.co2   1  UNL1       -0.5492
     33 O         137.5238  138.7510  166.7434 O.co2   1  UNL1       -0.5492
@<TRIPOS>UNITY_ATOM_ATTR
32 1
charge -1
@<TRIPOS>BOND
     1     2     1    1
     2     2     3    1
     3     3     4    2
     4     4     5    1
     5     5     6    2
     6     6     7    1
     7     7     8    1
     8     8     9    2
     9     9    19    1
    10    19    20    1
    11    19    21    1
    12    19    22    1
    13     9    10    1
    14    10    11    2
    15     4    12    1
    16    13    12    1
    17    13    14    1
    18    14    15    1
    19    15    16    1
    20    16    23    1
    21    23    24    1
    22    24    25    1
    23    25    31    1
    24    31    32   ar
    25    31    33   ar
    26    25    26    1
    27    26    27    1
    28    27    28    1
    29    28    29    1
    30    29    30    1
    31    16    17    1
    32    18    17    1
    33    18     2    1
    34    11     3    1
    35    18    13    1
    36    11     6    1
    37    30    25    1
