@<TRIPOS>MOLECULE
*****
 29 32 0 0 0
SMALL
GASTEIGER

@<TRIPOS>ATOM
      1 C         140.9251  137.5645  164.7712 C.3     1  UNL1        0.0559
      2 C         140.7684  138.1473  163.3980 C.3     1  UNL1        0.2098
      3 N         141.2661  137.5395  162.1202 N.pl3   1  UNL1       -0.2156
      4 C         140.8918  138.4568  160.9939 C.2     1  UNL1        0.3525
      5 N         140.1628  139.6316  161.5757 N.2     1  UNL1       -0.0586
      6 C         140.0866  139.4403  163.0615 C.3     1  UNL1        0.2515
      7 H         141.7530  136.6880  162.0356 H       1  UNL1        0.2924
      8 C         139.8577  139.5229  164.5416 C.ar    1  UNL1        0.0297
      9 C         138.5934  138.9777  165.1366 C.ar    1  UNL1        0.0025
     10 C         138.3645  139.0602  166.6168 C.ar    1  UNL1        0.0295
     11 C         139.4000  139.6880  167.5019 C.ar    1  UNL1        0.1401
     12 F         139.1712  139.7706  168.9820 F       1  UNL1       -0.2042
     13 C         140.6645  140.2334  166.9069 C.ar    1  UNL1        0.0295
     14 C         140.8933  140.1508  165.4268 C.ar    1  UNL1        0.0025
     15 C         139.3568  140.7506  163.0344 C.ar    1  UNL1        0.0488
     16 C         140.1149  142.0347  163.1969 C.ar    1  UNL1        0.0057
     17 C         139.3852  143.3450  163.1698 C.ar    1  UNL1        0.0495
     18 C         137.8974  143.3711  162.9804 C.ar    1  UNL1        0.2223
     19 F         137.1678  144.6814  162.9533 F       1  UNL1       -0.1832
     20 N         137.1394  142.0870  162.8179 N.ar    1  UNL1       -0.2166
     21 C         137.8691  140.7767  162.8450 C.ar    1  UNL1        0.1014
     22 C         141.1936  138.2378  159.5410 C.ar    1  UNL1        0.2467
     23 N         142.6123  138.2767  159.0555 N.ar    1  UNL1       -0.2188
     24 C         142.9140  138.0577  157.6026 C.ar    1  UNL1        0.1031
     25 C         141.7971  137.7998  156.6352 C.ar    1  UNL1        0.0503
     26 C         140.3784  137.7609  157.1207 C.ar    1  UNL1        0.1526
     27 N         140.0767  137.9799  158.5736 N.ar    1  UNL1       -0.2099
     28 C         139.2614  137.5030  156.1533 C.1     1  UNL1        0.1199
     29 N         138.1444  137.2451  155.1859 N.1     1  UNL1       -0.1893
@<TRIPOS>BOND
     1     2     1    1
     2     2     3    1
     3     3     4    1
     4     4    22    1
     5    22    23   ar
     6    23    24   ar
     7    24    25   ar
     8    25    26   ar
     9    26    28    1
    10    28    29    3
    11    26    27   ar
    12     4     5    2
    13     5     6    1
    14     6     8    1
    15     8     9   ar
    16     9    10   ar
    17    10    11   ar
    18    11    12    1
    19    11    13   ar
    20    13    14   ar
    21     6    15    1
    22    15    16   ar
    23    16    17   ar
    24    17    18   ar
    25    18    19    1
    26    18    20   ar
    27    20    21   ar
    28     6     2    1
    29    14     8   ar
    30    21    15   ar
    31    27    22   ar
    32     3     7    1
@<TRIPOS>MOLECULE
*****
 29 32 0 0 0
SMALL
GASTEIGER

@<TRIPOS>ATOM
      1 C         139.1671  138.4059  163.1237 C.3     1  UNL1        0.0559
      2 C         139.3647  139.4321  164.1997 C.3     1  UNL1        0.2098
      3 N         139.5493  139.1524  165.6618 N.pl3   1  UNL1       -0.2156
      4 C         139.7111  140.4657  166.3682 C.2     1  UNL1        0.3525
      5 N         139.6266  141.5572  165.3427 N.2     1  UNL1       -0.0586
      6 C         139.4125  140.9184  164.0025 C.3     1  UNL1        0.2515
      7 H         139.5620  138.2630  166.0837 H       1  UNL1        0.2924
      8 C         139.1991  140.5753  162.5579 C.ar    1  UNL1        0.0297
      9 C         140.3741  140.4617  161.6326 C.ar    1  UNL1        0.0025
     10 C         140.1607  140.1186  160.1879 C.ar    1  UNL1        0.0295
     11 C         138.7724  139.8891  159.6688 C.ar    1  UNL1        0.1401
     12 F         138.5589  139.5460  158.2243 F       1  UNL1       -0.2042
     13 C         137.5972  140.0027  160.5942 C.ar    1  UNL1        0.0295
     14 C         137.8106  140.3458  162.0388 C.ar    1  UNL1        0.0025
     15 C         139.4157  142.3329  163.5033 C.ar    1  UNL1        0.0488
     16 C         140.7082  143.0859  163.3914 C.ar    1  UNL1        0.0057
     17 C         140.7113  144.5003  162.8922 C.ar    1  UNL1        0.0495
     18 C         139.4220  145.1618  162.5048 C.ar    1  UNL1        0.2223
     19 F         139.4252  146.5764  162.0056 F       1  UNL1       -0.1832
     20 N         138.1296  144.4089  162.6166 N.ar    1  UNL1       -0.2166
     21 C         138.1264  142.9943  163.1159 C.ar    1  UNL1        0.1014
     22 C         139.9207  140.6545  167.8415 C.ar    1  UNL1        0.2467
     23 N         139.0997  139.8709  168.8222 N.ar    1  UNL1       -0.2188
     24 C         139.3093  140.0597  170.2955 C.ar    1  UNL1        0.1031
     25 C         140.3400  141.0320  170.7879 C.ar    1  UNL1        0.0503
     26 C         141.1609  141.8155  169.8071 C.ar    1  UNL1        0.1526
     27 N         140.9513  141.6268  168.3339 N.ar    1  UNL1       -0.2099
     28 C         142.1915  142.7878  170.2995 C.1     1  UNL1        0.1199
     29 N         143.2221  143.7601  170.7920 N.1     1  UNL1       -0.1893
@<TRIPOS>BOND
     1     2     1    1
     2     2     3    1
     3     3     4    1
     4     4    22    1
     5    22    23   ar
     6    23    24   ar
     7    24    25   ar
     8    25    26   ar
     9    26    28    1
    10    28    29    3
    11    26    27   ar
    12     4     5    2
    13     5     6    1
    14     6     8    1
    15     8     9   ar
    16     9    10   ar
    17    10    11   ar
    18    11    12    1
    19    11    13   ar
    20    13    14   ar
    21     6    15    1
    22    15    16   ar
    23    16    17   ar
    24    17    18   ar
    25    18    19    1
    26    18    20   ar
    27    20    21   ar
    28     6     2    1
    29    14     8   ar
    30    21    15   ar
    31    27    22   ar
    32     3     7    1
@<TRIPOS>MOLECULE
*****
 29 32 0 0 0
SMALL
GASTEIGER

@<TRIPOS>ATOM
      1 C         142.4663  139.5580  167.7819 C.3     1  UNL1        0.0559
      2 C         142.1067  139.6963  166.3322 C.3     1  UNL1        0.2098
      3 N         142.6801  138.8950  165.2012 N.pl3   1  UNL1       -0.2156
      4 C         142.0383  139.3636  163.9290 C.2     1  UNL1        0.3525
      5 N         141.0682  140.4545  164.2737 N.2     1  UNL1       -0.0586
      6 C         141.1104  140.6601  165.7590 C.3     1  UNL1        0.2515
      7 H         143.3586  138.1860  165.2800 H       1  UNL1        0.2924
      8 C         140.9369  141.0858  167.1868 C.ar    1  UNL1        0.0297
      9 C         139.8345  140.4969  168.0162 C.ar    1  UNL1        0.0025
     10 C         139.6609  140.9226  169.4441 C.ar    1  UNL1        0.0295
     11 C         140.5896  141.9370  170.0425 C.ar    1  UNL1        0.1401
     12 F         140.4161  142.3627  171.4703 F       1  UNL1       -0.2042
     13 C         141.6921  142.5260  169.2130 C.ar    1  UNL1        0.0295
     14 C         141.8657  142.1003  167.7852 C.ar    1  UNL1        0.0025
     15 C         140.0779  141.7129  165.4843 C.ar    1  UNL1        0.0488
     16 C         140.3889  143.1560  165.7506 C.ar    1  UNL1        0.0057
     17 C         139.3564  144.2088  165.4759 C.ar    1  UNL1        0.0495
     18 C         138.0129  143.8186  164.9349 C.ar    1  UNL1        0.2223
     19 F         136.9804  144.8715  164.6602 F       1  UNL1       -0.1832
     20 N         137.7019  142.3756  164.6687 N.ar    1  UNL1       -0.2166
     21 C         138.7344  141.3227  164.9433 C.ar    1  UNL1        0.1014
     22 C         142.3176  138.8343  162.5535 C.ar    1  UNL1        0.2467
     23 N         143.6403  138.1954  162.2501 N.ar    1  UNL1       -0.2188
     24 C         143.9195  137.6661  160.8747 C.ar    1  UNL1        0.1031
     25 C         142.8760  137.7756  159.8027 C.ar    1  UNL1        0.0503
     26 C         141.5533  138.4145  160.1062 C.ar    1  UNL1        0.1526
     27 N         141.2741  138.9438  161.4816 N.ar    1  UNL1       -0.2099
     28 C         140.5098  138.5241  159.0342 C.1     1  UNL1        0.1199
     29 N         139.4663  138.6337  157.9623 N.1     1  UNL1       -0.1893
@<TRIPOS>BOND
     1     2     1    1
     2     2     3    1
     3     3     4    1
     4     4    22    1
     5    22    23   ar
     6    23    24   ar
     7    24    25   ar
     8    25    26   ar
     9    26    28    1
    10    28    29    3
    11    26    27   ar
    12     4     5    2
    13     5     6    1
    14     6     8    1
    15     8     9   ar
    16     9    10   ar
    17    10    11   ar
    18    11    12    1
    19    11    13   ar
    20    13    14   ar
    21     6    15    1
    22    15    16   ar
    23    16    17   ar
    24    17    18   ar
    25    18    19    1
    26    18    20   ar
    27    20    21   ar
    28     6     2    1
    29    14     8   ar
    30    21    15   ar
    31    27    22   ar
    32     3     7    1
@<TRIPOS>MOLECULE
*****
 29 32 0 0 0
SMALL
GASTEIGER

@<TRIPOS>ATOM
      1 C         141.5092  145.3995  163.5263 C.3     1  UNL1        0.0559
      2 C         141.2101  144.8561  162.1605 C.3     1  UNL1        0.2098
      3 N         141.6191  145.4744  160.8566 N.pl3   1  UNL1       -0.2156
      4 C         141.1112  144.5993  159.7491 C.2     1  UNL1        0.3525
      5 N         140.3883  143.4403  160.3687 N.2     1  UNL1       -0.0586
      6 C         140.4494  143.5989  161.8590 C.3     1  UNL1        0.2515
      7 H         142.1311  146.3081  160.7468 H       1  UNL1        0.2924
      8 C         140.3470  143.4900  163.3515 C.ar    1  UNL1        0.0297
      9 C         139.2149  144.1558  164.0761 C.ar    1  UNL1        0.0025
     10 C         139.1124  144.0470  165.5687 C.ar    1  UNL1        0.0295
     11 C         140.1420  143.2723  166.3366 C.ar    1  UNL1        0.1401
     12 F         140.0396  143.1634  167.8291 F       1  UNL1       -0.2042
     13 C         141.2742  142.6064  165.6119 C.ar    1  UNL1        0.0295
     14 C         141.3766  142.7153  164.1194 C.ar    1  UNL1        0.0025
     15 C         139.6672  142.3190  161.8695 C.ar    1  UNL1        0.0488
     16 C         140.3842  141.0023  161.9184 C.ar    1  UNL1        0.0057
     17 C         139.6021  139.7224  161.9289 C.ar    1  UNL1        0.0495
     18 C         138.1030  139.7592  161.8905 C.ar    1  UNL1        0.2223
     19 F         137.3209  138.4792  161.9010 F       1  UNL1       -0.1832
     20 N         137.3861  141.0758  161.8417 N.ar    1  UNL1       -0.2166
     21 C         138.1682  142.3558  161.8312 C.ar    1  UNL1        0.1014
     22 C         141.2942  144.8410  158.2800 C.ar    1  UNL1        0.2467
     23 N         142.2269  143.9737  157.4877 N.ar    1  UNL1       -0.2188
     24 C         142.4098  144.2154  156.0187 C.ar    1  UNL1        0.1031
     25 C         141.6600  145.3244  155.3420 C.ar    1  UNL1        0.0503
     26 C         140.7273  146.1917  156.1343 C.ar    1  UNL1        0.1526
     27 N         140.5444  145.9500  157.6033 N.ar    1  UNL1       -0.2099
     28 C         139.9775  147.3008  155.4576 C.1     1  UNL1        0.1199
     29 N         139.2278  148.4098  154.7809 N.1     1  UNL1       -0.1893
@<TRIPOS>BOND
     1     2     1    1
     2     2     3    1
     3     3     4    1
     4     4    22    1
     5    22    23   ar
     6    23    24   ar
     7    24    25   ar
     8    25    26   ar
     9    26    28    1
    10    28    29    3
    11    26    27   ar
    12     4     5    2
    13     5     6    1
    14     6     8    1
    15     8     9   ar
    16     9    10   ar
    17    10    11   ar
    18    11    12    1
    19    11    13   ar
    20    13    14   ar
    21     6    15    1
    22    15    16   ar
    23    16    17   ar
    24    17    18   ar
    25    18    19    1
    26    18    20   ar
    27    20    21   ar
    28     6     2    1
    29    14     8   ar
    30    21    15   ar
    31    27    22   ar
    32     3     7    1
@<TRIPOS>MOLECULE
*****
 29 32 0 0 0
SMALL
GASTEIGER

@<TRIPOS>ATOM
      1 C         142.9291  142.3785  166.3557 C.3     1  UNL1        0.0559
      2 C         141.9663  142.0695  165.2478 C.3     1  UNL1        0.2098
      3 N         141.8692  142.7921  163.9369 N.pl3   1  UNL1       -0.2156
      4 C         140.7744  142.1528  163.1352 C.2     1  UNL1        0.3525
      5 N         140.1949  141.0351  163.9505 N.2     1  UNL1       -0.0586
      6 C         140.9315  140.9835  165.2562 C.3     1  UNL1        0.2515
      7 H         142.4262  143.5524  163.6527 H       1  UNL1        0.2924
      8 C         141.4756  140.6923  166.6234 C.ar    1  UNL1        0.0297
      9 C         142.4217  139.5461  166.8255 C.ar    1  UNL1        0.0025
     10 C         142.9658  139.2548  168.1927 C.ar    1  UNL1        0.0295
     11 C         142.5638  140.1097  169.3577 C.ar    1  UNL1        0.1401
     12 F         143.1079  139.8185  170.7248 F       1  UNL1       -0.2042
     13 C         141.6176  141.2561  169.1556 C.ar    1  UNL1        0.0295
     14 C         141.0735  141.5473  167.7884 C.ar    1  UNL1        0.0025
     15 C         140.0104  139.8368  165.5505 C.ar    1  UNL1        0.0488
     16 C         138.9648  139.9694  166.6177 C.ar    1  UNL1        0.0057
     17 C         138.0437  138.8227  166.9119 C.ar    1  UNL1        0.0495
     18 C         138.1684  137.5432  166.1390 C.ar    1  UNL1        0.2223
     19 F         137.2473  136.3964  166.4333 F       1  UNL1       -0.1832
     20 N         139.2140  137.4105  165.0718 N.ar    1  UNL1       -0.2166
     21 C         140.1351  138.5573  164.7775 C.ar    1  UNL1        0.1014
     22 C         140.3361  142.5598  161.7595 C.ar    1  UNL1        0.2467
     23 N         139.0956  141.9657  161.1612 N.ar    1  UNL1       -0.2188
     24 C         138.6574  142.3727  159.7856 C.ar    1  UNL1        0.1031
     25 C         139.4597  143.3739  159.0084 C.ar    1  UNL1        0.0503
     26 C         140.7002  143.9680  159.6068 C.ar    1  UNL1        0.1526
     27 N         141.1384  143.5610  160.9824 N.ar    1  UNL1       -0.2099
     28 C         141.5025  144.9692  158.8296 C.1     1  UNL1        0.1199
     29 N         142.3047  145.9703  158.0524 N.1     1  UNL1       -0.1893
@<TRIPOS>BOND
     1     2     1    1
     2     2     3    1
     3     3     4    1
     4     4    22    1
     5    22    23   ar
     6    23    24   ar
     7    24    25   ar
     8    25    26   ar
     9    26    28    1
    10    28    29    3
    11    26    27   ar
    12     4     5    2
    13     5     6    1
    14     6     8    1
    15     8     9   ar
    16     9    10   ar
    17    10    11   ar
    18    11    12    1
    19    11    13   ar
    20    13    14   ar
    21     6    15    1
    22    15    16   ar
    23    16    17   ar
    24    17    18   ar
    25    18    19    1
    26    18    20   ar
    27    20    21   ar
    28     6     2    1
    29    14     8   ar
    30    21    15   ar
    31    27    22   ar
    32     3     7    1
@<TRIPOS>MOLECULE
*****
 29 32 0 0 0
SMALL
GASTEIGER

@<TRIPOS>ATOM
      1 C         141.5550  137.5156  164.6832 C.3     1  UNL1        0.0559
      2 C         142.0139  138.2888  163.4826 C.3     1  UNL1        0.2098
      3 N         142.0798  137.7746  162.0750 N.pl3   1  UNL1       -0.2156
      4 C         142.5940  138.8800  161.2012 C.2     1  UNL1        0.3525
      5 N         142.8459  140.0775  162.0686 N.2     1  UNL1       -0.0586
      6 C         142.4874  139.7122  163.4786 C.3     1  UNL1        0.2515
      7 H         141.8295  136.8702  161.7770 H       1  UNL1        0.2924
      8 C         142.2159  139.6413  164.9521 C.ar    1  UNL1        0.0297
      9 C         140.8913  140.0913  165.4932 C.ar    1  UNL1        0.0025
     10 C         140.6198  140.0204  166.9668 C.ar    1  UNL1        0.0295
     11 C         141.6730  139.4995  167.8992 C.ar    1  UNL1        0.1401
     12 F         141.4015  139.4286  169.3727 F       1  UNL1       -0.2042
     13 C         142.9977  139.0494  167.3581 C.ar    1  UNL1        0.0295
     14 C         143.2691  139.1203  165.8846 C.ar    1  UNL1        0.0025
     15 C         142.9041  141.1207  163.7827 C.ar    1  UNL1        0.0488
     16 C         144.2861  141.4000  164.2947 C.ar    1  UNL1        0.0057
     17 C         144.7028  142.8084  164.5989 C.ar    1  UNL1        0.0495
     18 C         143.7376  143.9376  164.3910 C.ar    1  UNL1        0.2223
     19 F         144.1544  145.3461  164.6952 F       1  UNL1       -0.1832
     20 N         142.3557  143.6584  163.8791 N.ar    1  UNL1       -0.2166
     21 C         141.9389  142.2498  163.5749 C.ar    1  UNL1        0.1014
     22 C         142.8172  138.8017  159.7199 C.ar    1  UNL1        0.2467
     23 N         143.3280  139.9986  158.9740 N.ar    1  UNL1       -0.2188
     24 C         143.5511  139.9202  157.4928 C.ar    1  UNL1        0.1031
     25 C         143.2634  138.6449  156.7575 C.ar    1  UNL1        0.0503
     26 C         142.7526  137.4479  157.5033 C.ar    1  UNL1        0.1526
     27 N         142.5295  137.5263  158.9845 N.ar    1  UNL1       -0.2099
     28 C         142.4650  136.1726  156.7680 C.1     1  UNL1        0.1199
     29 N         142.1773  134.8972  156.0326 N.1     1  UNL1       -0.1893
@<TRIPOS>BOND
     1     2     1    1
     2     2     3    1
     3     3     4    1
     4     4    22    1
     5    22    23   ar
     6    23    24   ar
     7    24    25   ar
     8    25    26   ar
     9    26    28    1
    10    28    29    3
    11    26    27   ar
    12     4     5    2
    13     5     6    1
    14     6     8    1
    15     8     9   ar
    16     9    10   ar
    17    10    11   ar
    18    11    12    1
    19    11    13   ar
    20    13    14   ar
    21     6    15    1
    22    15    16   ar
    23    16    17   ar
    24    17    18   ar
    25    18    19    1
    26    18    20   ar
    27    20    21   ar
    28     6     2    1
    29    14     8   ar
    30    21    15   ar
    31    27    22   ar
    32     3     7    1
@<TRIPOS>MOLECULE
*****
 29 32 0 0 0
SMALL
GASTEIGER

@<TRIPOS>ATOM
      1 C         140.9908  137.2710  163.3476 C.3     1  UNL1        0.0559
      2 C         141.1649  138.4169  164.2998 C.3     1  UNL1        0.2098
      3 N         140.6141  138.4974  165.6926 N.pl3   1  UNL1       -0.2156
      4 C         141.0292  139.8138  166.2799 C.2     1  UNL1        0.3525
      5 N         141.8365  140.5469  165.2499 N.2     1  UNL1       -0.0586
      6 C         141.9204  139.6836  164.0262 C.3     1  UNL1        0.2515
      7 H         140.0748  137.8074  166.1424 H       1  UNL1        0.2924
      8 C         142.1733  139.0577  162.6866 C.ar    1  UNL1        0.0297
      9 C         141.1522  139.1840  161.5951 C.ar    1  UNL1        0.0025
     10 C         141.4050  138.5581  160.2555 C.ar    1  UNL1        0.0295
     11 C         142.6788  137.8059  160.0076 C.ar    1  UNL1        0.1401
     12 F         142.9317  137.1800  158.6680 F       1  UNL1       -0.2042
     13 C         143.7000  137.6796  161.0992 C.ar    1  UNL1        0.0295
     14 C         143.4471  138.3055  162.4387 C.ar    1  UNL1        0.0025
     15 C         142.7288  140.8193  163.4725 C.ar    1  UNL1        0.0488
     16 C         144.1935  140.9176  163.7806 C.ar    1  UNL1        0.0057
     17 C         145.0019  142.0533  163.2270 C.ar    1  UNL1        0.0495
     18 C         144.3455  143.0909  162.3652 C.ar    1  UNL1        0.2223
     19 F         145.1540  144.2267  161.8115 F       1  UNL1       -0.1832
     20 N         142.8809  142.9927  162.0571 N.ar    1  UNL1       -0.2166
     21 C         142.0724  141.8569  162.6107 C.ar    1  UNL1        0.1014
     22 C         140.6955  140.3100  167.6556 C.ar    1  UNL1        0.2467
     23 N         139.4669  139.8098  168.3558 N.ar    1  UNL1       -0.2188
     24 C         139.1332  140.3059  169.7314 C.ar    1  UNL1        0.1031
     25 C         140.0282  141.3023  170.4069 C.ar    1  UNL1        0.0503
     26 C         141.2568  141.8025  169.7067 C.ar    1  UNL1        0.1526
     27 N         141.5904  141.3064  168.3311 N.ar    1  UNL1       -0.2099
     28 C         142.1518  142.7989  170.3822 C.1     1  UNL1        0.1199
     29 N         143.0467  143.7953  171.0577 N.1     1  UNL1       -0.1893
@<TRIPOS>BOND
     1     2     1    1
     2     2     3    1
     3     3     4    1
     4     4    22    1
     5    22    23   ar
     6    23    24   ar
     7    24    25   ar
     8    25    26   ar
     9    26    28    1
    10    28    29    3
    11    26    27   ar
    12     4     5    2
    13     5     6    1
    14     6     8    1
    15     8     9   ar
    16     9    10   ar
    17    10    11   ar
    18    11    12    1
    19    11    13   ar
    20    13    14   ar
    21     6    15    1
    22    15    16   ar
    23    16    17   ar
    24    17    18   ar
    25    18    19    1
    26    18    20   ar
    27    20    21   ar
    28     6     2    1
    29    14     8   ar
    30    21    15   ar
    31    27    22   ar
    32     3     7    1
@<TRIPOS>MOLECULE
*****
 29 32 0 0 0
SMALL
GASTEIGER

@<TRIPOS>ATOM
      1 C         142.6972  144.7940  162.9220 C.3     1  UNL1        0.0559
      2 C         142.1685  143.6284  163.7040 C.3     1  UNL1        0.2098
      3 N         142.6236  143.2027  165.0684 N.pl3   1  UNL1       -0.2156
      4 C         141.8282  141.9949  165.4666 C.2     1  UNL1        0.3525
      5 N         140.8813  141.6742  164.3483 N.2     1  UNL1       -0.0586
      6 C         141.0916  142.6837  163.2590 C.3     1  UNL1        0.2515
      7 H         143.3219  143.6393  165.6079 H       1  UNL1        0.2924
      8 C         141.0762  143.5328  162.0226 C.ar    1  UNL1        0.0297
      9 C         141.9540  143.1791  160.8588 C.ar    1  UNL1        0.0025
     10 C         141.9386  144.0282  159.6223 C.ar    1  UNL1        0.0295
     11 C         141.0453  145.2310  159.5497 C.ar    1  UNL1        0.1401
     12 F         141.0299  146.0802  158.3133 F       1  UNL1       -0.2042
     13 C         140.1675  145.5848  160.7135 C.ar    1  UNL1        0.0295
     14 C         140.1829  144.7357  161.9499 C.ar    1  UNL1        0.0025
     15 C         140.0116  141.9165  162.5554 C.ar    1  UNL1        0.0488
     16 C         140.3719  140.7998  161.6210 C.ar    1  UNL1        0.0057
     17 C         139.2918  140.0326  160.9175 C.ar    1  UNL1        0.0495
     18 C         137.8515  140.3822  161.1483 C.ar    1  UNL1        0.2223
     19 F         136.7715  139.6150  160.4447 F       1  UNL1       -0.1832
     20 N         137.4913  141.4989  162.0826 N.ar    1  UNL1       -0.2166
     21 C         138.5713  142.2661  162.7863 C.ar    1  UNL1        0.1014
     22 C         141.9569  141.2404  166.7567 C.ar    1  UNL1        0.2467
     23 N         142.6326  139.9014  166.7782 N.ar    1  UNL1       -0.2188
     24 C         142.7613  139.1469  168.0682 C.ar    1  UNL1        0.1031
     25 C         142.2144  139.7315  169.3367 C.ar    1  UNL1        0.0503
     26 C         141.5388  141.0705  169.3152 C.ar    1  UNL1        0.1526
     27 N         141.4100  141.8250  168.0252 N.ar    1  UNL1       -0.2099
     28 C         140.9919  141.6551  170.5838 C.1     1  UNL1        0.1199
     29 N         140.4450  142.2396  171.8523 N.1     1  UNL1       -0.1893
@<TRIPOS>BOND
     1     2     1    1
     2     2     3    1
     3     3     4    1
     4     4    22    1
     5    22    23   ar
     6    23    24   ar
     7    24    25   ar
     8    25    26   ar
     9    26    28    1
    10    28    29    3
    11    26    27   ar
    12     4     5    2
    13     5     6    1
    14     6     8    1
    15     8     9   ar
    16     9    10   ar
    17    10    11   ar
    18    11    12    1
    19    11    13   ar
    20    13    14   ar
    21     6    15    1
    22    15    16   ar
    23    16    17   ar
    24    17    18   ar
    25    18    19    1
    26    18    20   ar
    27    20    21   ar
    28     6     2    1
    29    14     8   ar
    30    21    15   ar
    31    27    22   ar
    32     3     7    1
@<TRIPOS>MOLECULE
*****
 29 32 0 0 0
SMALL
GASTEIGER

@<TRIPOS>ATOM
      1 C         141.9144  137.7749  163.2853 C.3     1  UNL1        0.0559
      2 C         141.5659  138.7400  164.3794 C.3     1  UNL1        0.2098
      3 N         141.9999  138.6431  165.8120 N.pl3   1  UNL1       -0.2156
      4 C         141.4243  139.8146  166.5510 C.2     1  UNL1        0.3525
      5 N         140.6345  140.6356  165.5752 N.2     1  UNL1       -0.0586
      6 C         140.7220  139.9715  164.2331 C.3     1  UNL1        0.2515
      7 H         142.5636  137.9349  166.1992 H       1  UNL1        0.2924
      8 C         140.6289  139.5462  162.7977 C.ar    1  UNL1        0.0297
      9 C         141.6196  140.0626  161.7968 C.ar    1  UNL1        0.0025
     10 C         141.5267  139.6373  160.3613 C.ar    1  UNL1        0.0295
     11 C         140.4430  138.6956  159.9268 C.ar    1  UNL1        0.1401
     12 F         140.3500  138.2703  158.4914 F       1  UNL1       -0.2042
     13 C         139.4522  138.1791  160.9278 C.ar    1  UNL1        0.0295
     14 C         139.5453  138.6044  162.3632 C.ar    1  UNL1        0.0025
     15 C         139.8587  141.1140  163.7867 C.ar    1  UNL1        0.0488
     16 C         138.3687  140.9505  163.7295 C.ar    1  UNL1        0.0057
     17 C         137.5054  142.0930  163.2831 C.ar    1  UNL1        0.0495
     18 C         138.1320  143.3991  162.8939 C.ar    1  UNL1        0.2223
     19 F         137.2686  144.5416  162.4474 F       1  UNL1       -0.1832
     20 N         139.6219  143.5626  162.9511 N.ar    1  UNL1       -0.2166
     21 C         140.4853  142.4201  163.3975 C.ar    1  UNL1        0.1014
     22 C         141.6066  140.1128  168.0098 C.ar    1  UNL1        0.2467
     23 N         142.6696  139.4018  168.7935 N.ar    1  UNL1       -0.2188
     24 C         142.8518  139.7000  170.2522 C.ar    1  UNL1        0.1031
     25 C         141.9710  140.7092  170.9272 C.ar    1  UNL1        0.0503
     26 C         140.9080  141.4203  170.1434 C.ar    1  UNL1        0.1526
     27 N         140.7258  141.1221  168.6847 N.ar    1  UNL1       -0.2099
     28 C         140.0272  142.4296  170.8184 C.1     1  UNL1        0.1199
     29 N         139.1464  143.4388  171.4933 N.1     1  UNL1       -0.1893
@<TRIPOS>BOND
     1     2     1    1
     2     2     3    1
     3     3     4    1
     4     4    22    1
     5    22    23   ar
     6    23    24   ar
     7    24    25   ar
     8    25    26   ar
     9    26    28    1
    10    28    29    3
    11    26    27   ar
    12     4     5    2
    13     5     6    1
    14     6     8    1
    15     8     9   ar
    16     9    10   ar
    17    10    11   ar
    18    11    12    1
    19    11    13   ar
    20    13    14   ar
    21     6    15    1
    22    15    16   ar
    23    16    17   ar
    24    17    18   ar
    25    18    19    1
    26    18    20   ar
    27    20    21   ar
    28     6     2    1
    29    14     8   ar
    30    21    15   ar
    31    27    22   ar
    32     3     7    1
