@<TRIPOS>MOLECULE
*****
 32 35 0 0 0
SMALL
GASTEIGER

@<TRIPOS>ATOM
      1 N         138.6201  143.5862  163.3073 N.3     1  UNL1       -0.2673
      2 C         138.1766  142.4840  162.3917 C.3     1  UNL1        0.1035
      3 C         138.2533  141.0562  162.8448 C.3     1  UNL1        0.1470
      4 C         138.3300  139.6282  163.2979 C.3     1  UNL1        0.1035
      5 N         138.8502  139.3026  164.6666 N.3     1  UNL1       -0.2682
      6 C         139.2937  140.4049  165.5822 C.3     1  UNL1        0.1035
      7 C         139.2170  141.8328  165.1291 C.3     1  UNL1        0.1470
      8 C         139.1403  143.2606  164.6760 C.3     1  UNL1        0.1035
      9 O         138.7735  140.7306  164.2135 O.3     1  UNL1       -0.3530
     10 C         138.5433  145.0142  162.8542 C.3     1  UNL1        0.0913
     11 C         139.5574  145.5497  161.8874 C.3     1  UNL1        0.1087
     12 N         140.8764  146.0585  162.3891 N.3     1  UNL1       -0.1780
     13 H         141.2357  146.6958  161.6784 H       1  UNL1        0.1488
     14 O         142.1078  144.7625  161.2473 O.2     1  UNL1       -0.1530
     15 S         141.9813  145.0944  162.7046 S.O2    1  UNL1        0.0603
     16 O         141.8547  145.4264  164.1619 O.2     1  UNL1       -0.1530
     17 C         143.0862  144.1303  163.0201 C.ar    1  UNL1        0.1221
     18 C         143.4924  143.8952  164.4448 C.ar    1  UNL1        0.0222
     19 C         144.5973  142.9310  164.7603 C.ar    1  UNL1        0.0310
     20 C         145.2960  142.2019  163.6512 C.ar    1  UNL1        0.1402
     21 F         146.4009  141.2378  163.9667 F       1  UNL1       -0.2042
     22 C         144.8898  142.4370  162.2265 C.ar    1  UNL1        0.0310
     23 C         143.7849  143.4011  161.9110 C.ar    1  UNL1        0.0222
     24 C         138.9269  137.8748  165.1197 C.3     1  UNL1        0.0770
     25 C         140.1257  137.0417  164.7745 C.3     1  UNL1        0.0459
     26 C         141.4064  137.7050  164.3625 C.ar    1  UNL1        0.0067
     27 C         142.3725  138.1834  165.4054 C.ar    1  UNL1       -0.0020
     28 C         143.6533  138.8467  164.9934 C.ar    1  UNL1       -0.0002
     29 C         143.9680  139.0314  163.5384 C.ar    1  UNL1        0.0023
     30 C         143.0018  138.5529  162.4955 C.ar    1  UNL1        0.0293
     31 C         141.7211  137.8897  162.9075 C.ar    1  UNL1        0.1362
     32 F         140.7550  137.4112  161.8646 F       1  UNL1       -0.2045
@<TRIPOS>BOND
     1    14    15    2
     2    15    16    2
     3    15    12    1
     4    12    11    1
     5    11    10    1
     6    10     1    1
     7     1     2    1
     8     2     3    1
     9     3     4    1
    10     4     5    1
    11     5    24    1
    12    24    25    1
    13    25    26    1
    14    26    27   ar
    15    27    28   ar
    16    28    29   ar
    17    29    30   ar
    18    30    31   ar
    19    31    32    1
    20     5     6    1
    21     6     7    1
    22     7     8    1
    23     7     9    1
    24    15    17    1
    25    17    18   ar
    26    18    19   ar
    27    19    20   ar
    28    20    21    1
    29    20    22   ar
    30    22    23   ar
    31     8     1    1
    32    23    17   ar
    33     9     3    1
    34    31    26   ar
    35    12    13    1
@<TRIPOS>MOLECULE
*****
 32 35 0 0 0
SMALL
GASTEIGER

@<TRIPOS>ATOM
      1 N         144.5324  142.1087  163.4054 N.3     1  UNL1       -0.2673
      2 C         144.0375  143.0573  164.4566 C.3     1  UNL1        0.1035
      3 C         142.9463  144.0338  164.1318 C.3     1  UNL1        0.1470
      4 C         141.8551  145.0105  163.8070 C.3     1  UNL1        0.1035
      5 N         141.2588  145.0384  162.4309 N.3     1  UNL1       -0.2682
      6 C         141.7537  144.0898  161.3796 C.3     1  UNL1        0.1035
      7 C         142.8449  143.1132  161.7044 C.3     1  UNL1        0.1470
      8 C         143.9361  142.1366  162.0293 C.3     1  UNL1        0.1035
      9 O         142.3500  144.0618  162.7557 O.3     1  UNL1       -0.3530
     10 C         145.6237  141.1320  163.7302 C.3     1  UNL1        0.0913
     11 C         145.2864  139.8117  164.3569 C.3     1  UNL1        0.1087
     12 N         144.2156  138.9487  163.7578 N.3     1  UNL1       -0.1780
     13 H         144.1058  139.2463  162.7883 H       1  UNL1        0.1488
     14 O         142.3057  138.2808  163.1208 O.2     1  UNL1       -0.1530
     15 S         142.8431  138.9282  164.3625 S.O2    1  UNL1        0.0603
     16 O         143.3806  139.5757  165.6042 O.2     1  UNL1       -0.1530
     17 C         141.4706  138.9077  164.9673 C.ar    1  UNL1        0.1221
     18 C         141.1117  139.8861  166.0461 C.ar    1  UNL1        0.0222
     19 C         139.7391  139.8655  166.6509 C.ar    1  UNL1        0.0310
     20 C         138.7255  138.8666  166.1768 C.ar    1  UNL1        0.1402
     21 F         137.3530  138.8461  166.7816 F       1  UNL1       -0.2042
     22 C         139.0845  137.8882  165.0979 C.ar    1  UNL1        0.0310
     23 C         140.4570  137.9087  164.4932 C.ar    1  UNL1        0.0222
     24 C         140.1676  146.0150  162.1061 C.3     1  UNL1        0.0770
     25 C         138.7308  145.5984  162.2168 C.3     1  UNL1        0.0459
     26 C         138.3837  144.2283  162.7189 C.ar    1  UNL1        0.0067
     27 C         138.1477  143.1108  161.7467 C.ar    1  UNL1       -0.0020
     28 C         137.8007  141.7405  162.2488 C.ar    1  UNL1       -0.0002
     29 C         137.6896  141.4879  163.7232 C.ar    1  UNL1        0.0023
     30 C         137.9256  142.6055  164.6955 C.ar    1  UNL1        0.0293
     31 C         138.2727  143.9757  164.1933 C.ar    1  UNL1        0.1362
     32 F         138.5087  145.0932  165.1656 F       1  UNL1       -0.2045
@<TRIPOS>BOND
     1    14    15    2
     2    15    16    2
     3    15    12    1
     4    12    11    1
     5    11    10    1
     6    10     1    1
     7     1     2    1
     8     2     3    1
     9     3     4    1
    10     4     5    1
    11     5    24    1
    12    24    25    1
    13    25    26    1
    14    26    27   ar
    15    27    28   ar
    16    28    29   ar
    17    29    30   ar
    18    30    31   ar
    19    31    32    1
    20     5     6    1
    21     6     7    1
    22     7     8    1
    23     7     9    1
    24    15    17    1
    25    17    18   ar
    26    18    19   ar
    27    19    20   ar
    28    20    21    1
    29    20    22   ar
    30    22    23   ar
    31     8     1    1
    32    23    17   ar
    33     9     3    1
    34    31    26   ar
    35    12    13    1
@<TRIPOS>MOLECULE
*****
 32 35 0 0 0
SMALL
GASTEIGER

@<TRIPOS>ATOM
      1 N         143.0424  140.1660  160.3422 N.3     1  UNL1       -0.2673
      2 C         141.6900  140.3773  159.7287 C.3     1  UNL1        0.1035
      3 C         141.0269  141.7197  159.8193 C.3     1  UNL1        0.1470
      4 C         140.3636  143.0621  159.9098 C.3     1  UNL1        0.1035
      5 N         141.0528  144.1931  160.6139 N.3     1  UNL1       -0.2682
      6 C         142.4052  143.9818  161.2275 C.3     1  UNL1        0.1035
      7 C         143.0684  142.6394  161.1369 C.3     1  UNL1        0.1470
      8 C         143.7315  141.2971  161.0463 C.3     1  UNL1        0.1035
      9 O         141.7160  142.8507  160.5234 O.3     1  UNL1       -0.3530
     10 C         143.7056  138.8236  160.2517 C.3     1  UNL1        0.0913
     11 C         143.5535  137.8350  161.3694 C.3     1  UNL1        0.1087
     12 N         142.1996  137.2813  161.7020 N.3     1  UNL1       -0.1780
     13 H         141.5991  137.4700  160.8995 H       1  UNL1        0.1488
     14 O         142.7618  138.2423  163.5076 O.2     1  UNL1       -0.1530
     15 S         141.4667  137.7706  162.9158 S.O2    1  UNL1        0.0603
     16 O         140.1717  137.2990  162.3240 O.2     1  UNL1       -0.1530
     17 C         140.7338  138.2600  164.1296 C.ar    1  UNL1        0.1221
     18 C         141.4319  139.1411  165.1227 C.ar    1  UNL1        0.0222
     19 C         140.6989  139.6305  166.3366 C.ar    1  UNL1        0.0310
     20 C         139.2679  139.2386  166.5573 C.ar    1  UNL1        0.1402
     21 F         138.5350  139.7279  167.7711 F       1  UNL1       -0.2042
     22 C         138.5699  138.3574  165.5642 C.ar    1  UNL1        0.0310
     23 C         139.3028  137.8681  164.3504 C.ar    1  UNL1        0.0222
     24 C         140.3896  145.5355  160.7045 C.3     1  UNL1        0.0770
     25 C         139.6923  145.9438  161.9683 C.3     1  UNL1        0.0459
     26 C         139.4006  144.9226  163.0275 C.ar    1  UNL1        0.0067
     27 C         138.1244  144.1359  162.9797 C.ar    1  UNL1       -0.0020
     28 C         137.8326  143.1147  164.0390 C.ar    1  UNL1       -0.0002
     29 C         138.8173  142.8801  165.1460 C.ar    1  UNL1        0.0023
     30 C         140.0936  143.6668  165.1938 C.ar    1  UNL1        0.0293
     31 C         140.3852  144.6880  164.1346 C.ar    1  UNL1        0.1362
     32 F         141.6615  145.4746  164.1824 F       1  UNL1       -0.2045
@<TRIPOS>BOND
     1    14    15    2
     2    15    16    2
     3    15    12    1
     4    12    11    1
     5    11    10    1
     6    10     1    1
     7     1     2    1
     8     2     3    1
     9     3     4    1
    10     4     5    1
    11     5    24    1
    12    24    25    1
    13    25    26    1
    14    26    27   ar
    15    27    28   ar
    16    28    29   ar
    17    29    30   ar
    18    30    31   ar
    19    31    32    1
    20     5     6    1
    21     6     7    1
    22     7     8    1
    23     7     9    1
    24    15    17    1
    25    17    18   ar
    26    18    19   ar
    27    19    20   ar
    28    20    21    1
    29    20    22   ar
    30    22    23   ar
    31     8     1    1
    32    23    17   ar
    33     9     3    1
    34    31    26   ar
    35    12    13    1
@<TRIPOS>MOLECULE
*****
 32 35 0 0 0
SMALL
GASTEIGER

@<TRIPOS>ATOM
      1 N         144.5638  142.4900  163.2497 N.3     1  UNL1       -0.2673
      2 C         144.0362  143.4137  164.3072 C.3     1  UNL1        0.1035
      3 C         142.8756  144.3145  164.0049 C.3     1  UNL1        0.1470
      4 C         141.7149  145.2155  163.7027 C.3     1  UNL1        0.1035
      5 N         141.0820  145.1926  162.3429 N.3     1  UNL1       -0.2682
      6 C         141.6097  144.2688  161.2854 C.3     1  UNL1        0.1035
      7 C         142.7703  143.3680  161.5877 C.3     1  UNL1        0.1470
      8 C         143.9309  142.4671  161.8900 C.3     1  UNL1        0.1035
      9 O         142.2426  144.2917  162.6452 O.3     1  UNL1       -0.3530
     10 C         145.7245  141.5890  163.5519 C.3     1  UNL1        0.0913
     11 C         145.4907  140.2562  164.1990 C.3     1  UNL1        0.1087
     12 N         145.0675  139.0822  163.3666 N.3     1  UNL1       -0.1780
     13 H         145.5262  139.1826  162.4611 H       1  UNL1        0.1488
     14 O         143.9018  138.7795  161.6204 O.2     1  UNL1       -0.1530
     15 S         143.6125  138.8440  163.0908 S.O2    1  UNL1        0.0603
     16 O         143.3232  138.9084  164.5612 O.2     1  UNL1       -0.1530
     17 C         142.1575  138.6057  162.8150 C.ar    1  UNL1        0.1221
     18 C         141.3483  137.7502  163.7441 C.ar    1  UNL1        0.0222
     19 C         139.8932  137.5119  163.4683 C.ar    1  UNL1        0.0310
     20 C         139.2474  138.1292  162.2634 C.ar    1  UNL1        0.1402
     21 F         137.7923  137.8910  161.9876 F       1  UNL1       -0.2042
     22 C         140.0566  138.9847  161.3342 C.ar    1  UNL1        0.0310
     23 C         141.5116  139.2230  161.6100 C.ar    1  UNL1        0.0222
     24 C         139.9214  146.0935  162.0407 C.3     1  UNL1        0.0770
     25 C         138.5198  145.5664  162.1296 C.3     1  UNL1        0.0459
     26 C         138.2679  144.1947  162.6817 C.ar    1  UNL1        0.0067
     27 C         138.0501  143.0396  161.7499 C.ar    1  UNL1       -0.0020
     28 C         137.7982  141.6678  162.3020 C.ar    1  UNL1       -0.0002
     29 C         137.7642  141.4511  163.7859 C.ar    1  UNL1        0.0023
     30 C         137.9821  142.6063  164.7177 C.ar    1  UNL1        0.0293
     31 C         138.2339  143.9781  164.1656 C.ar    1  UNL1        0.1362
     32 F         138.4518  145.1332  165.0973 F       1  UNL1       -0.2045
@<TRIPOS>BOND
     1    14    15    2
     2    15    16    2
     3    15    12    1
     4    12    11    1
     5    11    10    1
     6    10     1    1
     7     1     2    1
     8     2     3    1
     9     3     4    1
    10     4     5    1
    11     5    24    1
    12    24    25    1
    13    25    26    1
    14    26    27   ar
    15    27    28   ar
    16    28    29   ar
    17    29    30   ar
    18    30    31   ar
    19    31    32    1
    20     5     6    1
    21     6     7    1
    22     7     8    1
    23     7     9    1
    24    15    17    1
    25    17    18   ar
    26    18    19   ar
    27    19    20   ar
    28    20    21    1
    29    20    22   ar
    30    22    23   ar
    31     8     1    1
    32    23    17   ar
    33     9     3    1
    34    31    26   ar
    35    12    13    1
@<TRIPOS>MOLECULE
*****
 32 35 0 0 0
SMALL
GASTEIGER

@<TRIPOS>ATOM
      1 N         139.6159  142.8382  159.9861 N.3     1  UNL1       -0.2673
      2 C         141.0488  142.6641  159.5784 C.3     1  UNL1        0.1035
      3 C         142.1490  143.0278  160.5310 C.3     1  UNL1        0.1470
      4 C         143.2492  143.3914  161.4835 C.3     1  UNL1        0.1035
      5 N         142.9164  143.9291  162.8437 N.3     1  UNL1       -0.2682
      6 C         141.4833  144.1032  163.2514 C.3     1  UNL1        0.1035
      7 C         140.3832  143.7395  162.2988 C.3     1  UNL1        0.1470
      8 C         139.2830  143.3759  161.3463 C.3     1  UNL1        0.1035
      9 O         141.8162  143.5655  161.8912 O.3     1  UNL1       -0.3530
     10 C         138.5156  142.4746  159.0335 C.3     1  UNL1        0.0913
     11 C         138.5885  141.1930  158.2575 C.3     1  UNL1        0.1087
     12 N         138.0263  139.9303  158.8403 N.3     1  UNL1       -0.1780
     13 H         137.0702  140.1389  159.1278 H       1  UNL1        0.1488
     14 O         137.4713  139.5091  160.8439 O.2     1  UNL1       -0.1530
     15 S         138.6992  139.2811  160.0132 S.O2    1  UNL1        0.0603
     16 O         139.9272  139.0531  159.1824 O.2     1  UNL1       -0.1530
     17 C         139.3722  138.6318  161.1860 C.ar    1  UNL1        0.1221
     18 C         138.5686  138.2450  162.3921 C.ar    1  UNL1        0.0222
     19 C         139.2416  137.5957  163.5650 C.ar    1  UNL1        0.0310
     20 C         140.7181  137.3333  163.5317 C.ar    1  UNL1        0.1402
     21 F         141.3910  136.6841  164.7046 F       1  UNL1       -0.2042
     22 C         141.5216  137.7202  162.3257 C.ar    1  UNL1        0.0310
     23 C         140.8487  138.3694  161.1528 C.ar    1  UNL1        0.0222
     24 C         144.0166  144.2927  163.7963 C.3     1  UNL1        0.0770
     25 C         144.2342  143.4781  165.0369 C.3     1  UNL1        0.0459
     26 C         144.1102  141.9842  164.9846 C.ar    1  UNL1        0.0067
     27 C         143.0095  141.2963  165.7364 C.ar    1  UNL1       -0.0020
     28 C         142.8854  139.8023  165.6842 C.ar    1  UNL1       -0.0002
     29 C         143.8619  138.9963  164.8800 C.ar    1  UNL1        0.0023
     30 C         144.9627  139.6843  164.1282 C.ar    1  UNL1        0.0293
     31 C         145.0867  141.1782  164.1805 C.ar    1  UNL1        0.1362
     32 F         146.1874  141.8661  163.4287 F       1  UNL1       -0.2045
@<TRIPOS>BOND
     1    14    15    2
     2    15    16    2
     3    15    12    1
     4    12    11    1
     5    11    10    1
     6    10     1    1
     7     1     2    1
     8     2     3    1
     9     3     4    1
    10     4     5    1
    11     5    24    1
    12    24    25    1
    13    25    26    1
    14    26    27   ar
    15    27    28   ar
    16    28    29   ar
    17    29    30   ar
    18    30    31   ar
    19    31    32    1
    20     5     6    1
    21     6     7    1
    22     7     8    1
    23     7     9    1
    24    15    17    1
    25    17    18   ar
    26    18    19   ar
    27    19    20   ar
    28    20    21    1
    29    20    22   ar
    30    22    23   ar
    31     8     1    1
    32    23    17   ar
    33     9     3    1
    34    31    26   ar
    35    12    13    1
@<TRIPOS>MOLECULE
*****
 32 35 0 0 0
SMALL
GASTEIGER

@<TRIPOS>ATOM
      1 N         141.7894  138.2426  160.5167 N.3     1  UNL1       -0.2673
      2 C         142.4925  137.9197  161.8017 C.3     1  UNL1        0.1035
      3 C         141.7002  137.7094  163.0579 C.3     1  UNL1        0.1470
      4 C         140.9079  137.4991  164.3141 C.3     1  UNL1        0.1035
      5 N         139.4124  137.6117  164.2853 N.3     1  UNL1       -0.2682
      6 C         138.7092  137.9346  163.0002 C.3     1  UNL1        0.1035
      7 C         139.5015  138.1448  161.7440 C.3     1  UNL1        0.1470
      8 C         140.2939  138.3551  160.4879 C.3     1  UNL1        0.1035
      9 O         140.2047  137.8220  163.0290 O.3     1  UNL1       -0.3530
     10 C         142.5817  138.4529  159.2605 C.3     1  UNL1        0.0913
     11 C         143.2731  139.7621  159.0202 C.3     1  UNL1        0.1087
     12 N         142.6707  141.0346  159.5380 N.3     1  UNL1       -0.1780
     13 H         142.8526  141.7530  158.8371 H       1  UNL1        0.1488
     14 O         144.5207  141.6948  160.3387 O.2     1  UNL1       -0.1530
     15 S         143.1167  141.5933  160.8566 S.O2    1  UNL1        0.0603
     16 O         141.7126  141.4918  161.3745 O.2     1  UNL1       -0.1530
     17 C         143.5627  142.1521  162.1752 C.ar    1  UNL1        0.1221
     18 C         144.8751  141.7273  162.7644 C.ar    1  UNL1        0.0222
     19 C         145.3211  142.2861  164.0832 C.ar    1  UNL1        0.0310
     20 C         144.4547  143.2696  164.8126 C.ar    1  UNL1        0.1402
     21 F         144.9007  143.8284  166.1312 F       1  UNL1       -0.2042
     22 C         143.1423  143.6943  164.2233 C.ar    1  UNL1        0.0310
     23 C         142.6963  143.1356  162.9047 C.ar    1  UNL1        0.0222
     24 C         138.6200  137.4014  165.5414 C.3     1  UNL1        0.0770
     25 C         138.0806  138.5814  166.2943 C.3     1  UNL1        0.0459
     26 C         138.8894  139.8406  166.3947 C.ar    1  UNL1        0.0067
     27 C         139.8769  140.0106  167.5108 C.ar    1  UNL1       -0.0020
     28 C         140.6859  141.2699  167.6112 C.ar    1  UNL1       -0.0002
     29 C         140.5072  142.3590  166.5954 C.ar    1  UNL1        0.0023
     30 C         139.5196  142.1889  165.4792 C.ar    1  UNL1        0.0293
     31 C         138.7107  140.9297  165.3789 C.ar    1  UNL1        0.1362
     32 F         137.7232  140.7597  164.2627 F       1  UNL1       -0.2045
@<TRIPOS>BOND
     1    14    15    2
     2    15    16    2
     3    15    12    1
     4    12    11    1
     5    11    10    1
     6    10     1    1
     7     1     2    1
     8     2     3    1
     9     3     4    1
    10     4     5    1
    11     5    24    1
    12    24    25    1
    13    25    26    1
    14    26    27   ar
    15    27    28   ar
    16    28    29   ar
    17    29    30   ar
    18    30    31   ar
    19    31    32    1
    20     5     6    1
    21     6     7    1
    22     7     8    1
    23     7     9    1
    24    15    17    1
    25    17    18   ar
    26    18    19   ar
    27    19    20   ar
    28    20    21    1
    29    20    22   ar
    30    22    23   ar
    31     8     1    1
    32    23    17   ar
    33     9     3    1
    34    31    26   ar
    35    12    13    1
@<TRIPOS>MOLECULE
*****
 32 35 0 0 0
SMALL
GASTEIGER

@<TRIPOS>ATOM
      1 N         140.0203  142.6431  159.3048 N.3     1  UNL1       -0.2673
      2 C         141.1053  141.6344  159.5396 C.3     1  UNL1        0.1035
      3 C         140.8439  140.4404  160.4090 C.3     1  UNL1        0.1470
      4 C         140.5825  139.2462  161.2784 C.3     1  UNL1        0.1035
      5 N         139.2360  139.0609  161.9130 N.3     1  UNL1       -0.2682
      6 C         138.1510  140.0696  161.6781 C.3     1  UNL1        0.1035
      7 C         138.4124  141.2637  160.8087 C.3     1  UNL1        0.1470
      8 C         138.6738  142.4577  159.9393 C.3     1  UNL1        0.1035
      9 O         139.4974  140.2550  161.0435 O.3     1  UNL1       -0.3530
     10 C         140.2817  143.8372  158.4354 C.3     1  UNL1        0.0913
     11 C         140.2989  145.2120  159.0349 C.3     1  UNL1        0.1087
     12 N         141.2601  145.5365  160.1398 N.3     1  UNL1       -0.1780
     13 H         142.1722  145.1839  159.8497 H       1  UNL1        0.1488
     14 O         142.4336  144.5334  161.5946 O.2     1  UNL1       -0.1530
     15 S         141.0147  145.0148  161.5246 S.O2    1  UNL1        0.0603
     16 O         139.5959  145.4963  161.4546 O.2     1  UNL1       -0.1530
     17 C         140.7694  144.4932  162.9094 C.ar    1  UNL1        0.1221
     18 C         141.7586  143.5630  163.5466 C.ar    1  UNL1        0.0222
     19 C         141.5132  143.0414  164.9315 C.ar    1  UNL1        0.0310
     20 C         140.2786  143.4499  165.6790 C.ar    1  UNL1        0.1402
     21 F         140.0333  142.9283  167.0637 F       1  UNL1       -0.2042
     22 C         139.2894  144.3801  165.0417 C.ar    1  UNL1        0.0310
     23 C         139.5347  144.9017  163.6569 C.ar    1  UNL1        0.0222
     24 C         138.9746  137.8668  162.7824 C.3     1  UNL1        0.0770
     25 C         138.9348  138.0195  164.2741 C.3     1  UNL1        0.0459
     26 C         140.1736  138.4167  165.0207 C.ar    1  UNL1        0.0067
     27 C         141.4773  137.7355  164.7267 C.ar    1  UNL1       -0.0020
     28 C         142.7162  138.1327  165.4733 C.ar    1  UNL1       -0.0002
     29 C         142.6514  139.2112  166.5139 C.ar    1  UNL1        0.0023
     30 C         141.3477  139.8924  166.8078 C.ar    1  UNL1        0.0293
     31 C         140.1088  139.4952  166.0612 C.ar    1  UNL1        0.1362
     32 F         138.8052  140.1764  166.3552 F       1  UNL1       -0.2045
@<TRIPOS>BOND
     1    14    15    2
     2    15    16    2
     3    15    12    1
     4    12    11    1
     5    11    10    1
     6    10     1    1
     7     1     2    1
     8     2     3    1
     9     3     4    1
    10     4     5    1
    11     5    24    1
    12    24    25    1
    13    25    26    1
    14    26    27   ar
    15    27    28   ar
    16    28    29   ar
    17    29    30   ar
    18    30    31   ar
    19    31    32    1
    20     5     6    1
    21     6     7    1
    22     7     8    1
    23     7     9    1
    24    15    17    1
    25    17    18   ar
    26    18    19   ar
    27    19    20   ar
    28    20    21    1
    29    20    22   ar
    30    22    23   ar
    31     8     1    1
    32    23    17   ar
    33     9     3    1
    34    31    26   ar
    35    12    13    1
@<TRIPOS>MOLECULE
*****
 32 35 0 0 0
SMALL
GASTEIGER

@<TRIPOS>ATOM
      1 N         139.9720  142.6582  159.2999 N.3     1  UNL1       -0.2673
      2 C         141.0209  141.6185  159.5624 C.3     1  UNL1        0.1035
      3 C         140.7191  140.4603  160.4665 C.3     1  UNL1        0.1470
      4 C         140.4173  139.3020  161.3706 C.3     1  UNL1        0.1035
      5 N         139.0666  139.1834  162.0122 N.3     1  UNL1       -0.2682
      6 C         138.0177  140.2231  161.7496 C.3     1  UNL1        0.1035
      7 C         138.3195  141.3813  160.8455 C.3     1  UNL1        0.1470
      8 C         138.6213  142.5396  159.9414 C.3     1  UNL1        0.1035
      9 O         139.3684  140.3417  161.1081 O.3     1  UNL1       -0.3530
     10 C         140.2737  143.8165  158.3958 C.3     1  UNL1        0.0913
     11 C         140.3164  145.2095  158.9503 C.3     1  UNL1        0.1087
     12 N         141.2737  145.5482  160.0544 N.3     1  UNL1       -0.1780
     13 H         142.1847  145.1829  159.7767 H       1  UNL1        0.1488
     14 O         142.4099  144.5050  161.5106 O.2     1  UNL1       -0.1530
     15 S         141.0162  145.0560  161.4477 S.O2    1  UNL1        0.0603
     16 O         139.6225  145.6069  161.3848 O.2     1  UNL1       -0.1530
     17 C         140.7587  144.5637  162.8410 C.ar    1  UNL1        0.1221
     18 C         139.4815  144.9246  163.5399 C.ar    1  UNL1        0.0222
     19 C         139.2240  144.4322  164.9333 C.ar    1  UNL1        0.0310
     20 C         140.2437  143.5791  165.6277 C.ar    1  UNL1        0.1402
     21 F         139.9862  143.0868  167.0209 F       1  UNL1       -0.2042
     22 C         141.5210  143.2182  164.9288 C.ar    1  UNL1        0.0310
     23 C         141.7785  143.7105  163.5355 C.ar    1  UNL1        0.0222
     24 C         138.7648  138.0252  162.9163 C.3     1  UNL1        0.0770
     25 C         138.8106  138.2039  164.4049 C.3     1  UNL1        0.0459
     26 C         140.1036  138.5566  165.0785 C.ar    1  UNL1        0.0067
     27 C         140.1600  139.7093  166.0367 C.ar    1  UNL1       -0.0020
     28 C         141.4531  140.0620  166.7103 C.ar    1  UNL1       -0.0002
     29 C         142.6896  139.2620  166.4258 C.ar    1  UNL1        0.0023
     30 C         142.6331  138.1093  165.4676 C.ar    1  UNL1        0.0293
     31 C         141.3401  137.7566  164.7940 C.ar    1  UNL1        0.1362
     32 F         141.2837  136.6039  163.8359 F       1  UNL1       -0.2045
@<TRIPOS>BOND
     1    14    15    2
     2    15    16    2
     3    15    12    1
     4    12    11    1
     5    11    10    1
     6    10     1    1
     7     1     2    1
     8     2     3    1
     9     3     4    1
    10     4     5    1
    11     5    24    1
    12    24    25    1
    13    25    26    1
    14    26    27   ar
    15    27    28   ar
    16    28    29   ar
    17    29    30   ar
    18    30    31   ar
    19    31    32    1
    20     5     6    1
    21     6     7    1
    22     7     8    1
    23     7     9    1
    24    15    17    1
    25    17    18   ar
    26    18    19   ar
    27    19    20   ar
    28    20    21    1
    29    20    22   ar
    30    22    23   ar
    31     8     1    1
    32    23    17   ar
    33     9     3    1
    34    31    26   ar
    35    12    13    1
@<TRIPOS>MOLECULE
*****
 32 35 0 0 0
SMALL
GASTEIGER

@<TRIPOS>ATOM
      1 N         140.0371  142.1308  159.7368 N.3     1  UNL1       -0.2673
      2 C         141.5105  142.0243  159.4764 C.3     1  UNL1        0.1035
      3 C         142.4892  142.5877  160.4635 C.3     1  UNL1        0.1470
      4 C         143.4681  143.1513  161.4507 C.3     1  UNL1        0.1035
      5 N         142.9735  143.8214  162.6982 N.3     1  UNL1       -0.2682
      6 C         141.5000  143.9279  162.9586 C.3     1  UNL1        0.1035
      7 C         140.5213  143.3644  161.9714 C.3     1  UNL1        0.1470
      8 C         139.5425  142.8009  160.9843 C.3     1  UNL1        0.1035
      9 O         141.9946  143.2578  161.7110 O.3     1  UNL1       -0.3530
     10 C         139.0583  141.5673  158.7496 C.3     1  UNL1        0.0913
     11 C         138.1053  140.4883  159.1708 C.3     1  UNL1        0.1087
     12 N         138.6218  139.2552  159.8511 N.3     1  UNL1       -0.1780
     13 H         138.0748  138.4714  159.4949 H       1  UNL1        0.1488
     14 O         139.7940  138.2569  161.3103 O.2     1  UNL1       -0.1530
     15 S         138.5949  139.1572  161.3477 S.O2    1  UNL1        0.0603
     16 O         137.3958  140.0575  161.3851 O.2     1  UNL1       -0.1530
     17 C         138.5680  139.0592  162.8442 C.ar    1  UNL1        0.1221
     18 C         138.1581  140.2451  163.6662 C.ar    1  UNL1        0.0222
     19 C         138.1313  140.1471  165.1628 C.ar    1  UNL1        0.0310
     20 C         138.5143  138.8633  165.8373 C.ar    1  UNL1        0.1402
     21 F         138.4875  138.7653  167.3338 F       1  UNL1       -0.2042
     22 C         138.9242  137.6774  165.0153 C.ar    1  UNL1        0.0310
     23 C         138.9511  137.7754  163.5188 C.ar    1  UNL1        0.0222
     24 C         143.9522  144.3849  163.6853 C.3     1  UNL1        0.0770
     25 C         144.3393  143.5882  164.8960 C.3     1  UNL1        0.0459
     26 C         144.1642  142.0985  164.9010 C.ar    1  UNL1        0.0067
     27 C         143.0186  141.4805  165.6463 C.ar    1  UNL1       -0.0020
     28 C         142.8435  139.9907  165.6513 C.ar    1  UNL1       -0.0002
     29 C         143.8141  139.1190  164.9109 C.ar    1  UNL1        0.0023
     30 C         144.9598  139.7371  164.1656 C.ar    1  UNL1        0.0293
     31 C         145.1348  141.2268  164.1606 C.ar    1  UNL1        0.1362
     32 F         146.2805  141.8448  163.4154 F       1  UNL1       -0.2045
@<TRIPOS>BOND
     1    14    15    2
     2    15    16    2
     3    15    12    1
     4    12    11    1
     5    11    10    1
     6    10     1    1
     7     1     2    1
     8     2     3    1
     9     3     4    1
    10     4     5    1
    11     5    24    1
    12    24    25    1
    13    25    26    1
    14    26    27   ar
    15    27    28   ar
    16    28    29   ar
    17    29    30   ar
    18    30    31   ar
    19    31    32    1
    20     5     6    1
    21     6     7    1
    22     7     8    1
    23     7     9    1
    24    15    17    1
    25    17    18   ar
    26    18    19   ar
    27    19    20   ar
    28    20    21    1
    29    20    22   ar
    30    22    23   ar
    31     8     1    1
    32    23    17   ar
    33     9     3    1
    34    31    26   ar
    35    12    13    1
