@<TRIPOS>MOLECULE
*****
 27 30 0 0 0
SMALL
GASTEIGER

@<TRIPOS>ATOM
      1 C         139.7345  145.8364  162.1513 C.3     1  UNL1        0.0307
      2 C         139.8643  144.6493  163.0589 C.ar    1  UNL1       -0.0242
      3 C         138.7506  143.6486  163.1490 C.ar    1  UNL1        0.0160
      4 C         138.8804  142.4615  164.0567 C.ar    1  UNL1        0.0980
      5 N         137.9558  141.3178  164.3518 N.ar    1  UNL1       -0.2310
      6 C         138.6280  140.4245  165.3518 C.ar    1  UNL1        0.1206
      7 N         139.9681  141.0161  165.6747 N.ar    1  UNL1       -0.3107
      8 C         140.1241  142.2750  164.8743 C.ar    1  UNL1        0.0785
      9 C         141.2378  143.2756  164.7842 C.ar    1  UNL1        0.0142
     10 C         141.1080  144.4628  163.8766 C.ar    1  UNL1       -0.0243
     11 C         142.2218  145.4635  163.7865 C.3     1  UNL1        0.0307
     12 C         138.0599  139.1613  165.9279 C.3     1  UNL1        0.0653
     13 C         138.5070  137.8297  165.4018 C.3     1  UNL1        0.0239
     14 C         139.5580  137.7597  164.3339 C.3     1  UNL1        0.0580
     15 C         141.0100  137.4484  164.5449 C.3     1  UNL1        0.0174
     16 C         141.6909  137.4850  163.2089 C.3     1  UNL1        0.0187
     17 C         140.6597  137.8190  162.1721 C.3     1  UNL1        0.0721
     18 N         139.3414  137.9887  162.8674 N.3     1  UNL1       -0.2728
     19 C         138.0358  138.3279  162.2113 C.3     1  UNL1        0.0896
     20 C         140.9753  140.4484  166.6303 C.3     1  UNL1        0.1339
     21 C         141.5024  141.2918  167.7532 C.ar    1  UNL1        0.0005
     22 C         142.9454  141.1943  168.1511 C.ar    1  UNL1       -0.0015
     23 C         143.4725  142.0377  169.2740 C.ar    1  UNL1        0.0111
     24 C         142.5566  142.9787  169.9990 C.ar    1  UNL1        0.0577
     25 CL        143.0836  143.8221  171.1218 Cl      1  UNL1       -0.0822
     26 C         141.1136  143.0763  169.6011 C.ar    1  UNL1        0.0111
     27 C         140.5865  142.2329  168.4782 C.ar    1  UNL1       -0.0015
@<TRIPOS>BOND
     1     1     2    1
     2     2     3   ar
     3     3     4   ar
     4     4     5   ar
     5     5     6   ar
     6     6    12    1
     7    12    13    1
     8    13    14    1
     9    14    15    1
    10    15    16    1
    11    16    17    1
    12    17    18    1
    13    18    19    1
    14     6     7   ar
    15     7    20    1
    16    20    21    1
    17    21    22   ar
    18    22    23   ar
    19    23    24   ar
    20    24    25    1
    21    24    26   ar
    22    26    27   ar
    23     7     8   ar
    24     8     9   ar
    25     9    10   ar
    26    10    11    1
    27    10     2   ar
    28     8     4   ar
    29    18    14    1
    30    27    21   ar
@<TRIPOS>MOLECULE
*****
 27 30 0 0 0
SMALL
GASTEIGER

@<TRIPOS>ATOM
      1 C         138.8216  145.3993  162.5207 C.3     1  UNL1        0.0307
      2 C         139.7990  144.5693  163.2991 C.ar    1  UNL1       -0.0242
      3 C         140.9825  143.9596  162.6082 C.ar    1  UNL1        0.0160
      4 C         141.9599  143.1297  163.3866 C.ar    1  UNL1        0.0980
      5 N         143.2102  142.4072  162.9805 N.ar    1  UNL1       -0.2310
      6 C         143.7767  141.7405  164.1989 C.ar    1  UNL1        0.1206
      7 N         142.8765  142.0508  165.3579 N.ar    1  UNL1       -0.3107
      8 C         141.7537  142.9094  164.8559 C.ar    1  UNL1        0.0785
      9 C         140.5701  143.5191  165.5468 C.ar    1  UNL1        0.0142
     10 C         139.5927  144.3490  164.7684 C.ar    1  UNL1       -0.0243
     11 C         138.4091  144.9587  165.4593 C.3     1  UNL1        0.0307
     12 C         145.0244  140.9093  164.2494 C.3     1  UNL1        0.0653
     13 C         144.9276  139.4190  164.3891 C.3     1  UNL1        0.0239
     14 C         143.6415  138.7175  164.0668 C.3     1  UNL1        0.0580
     15 C         142.6474  138.1974  165.0622 C.3     1  UNL1        0.0174
     16 C         141.5153  137.5714  164.3031 C.3     1  UNL1        0.0187
     17 C         141.8097  137.7046  162.8383 C.3     1  UNL1        0.0721
     18 N         143.1239  138.4130  162.6922 N.3     1  UNL1       -0.2728
     19 C         143.8014  138.7564  161.3987 C.3     1  UNL1        0.0896
     20 C         143.0659  141.5845  166.7709 C.3     1  UNL1        0.1339
     21 C         141.8729  141.2557  167.6185 C.ar    1  UNL1        0.0005
     22 C         141.6448  141.9868  168.9084 C.ar    1  UNL1       -0.0015
     23 C         140.4518  141.6581  169.7561 C.ar    1  UNL1        0.0111
     24 C         139.4867  140.5983  169.3140 C.ar    1  UNL1        0.0577
     25 CL        138.2937  140.2696  170.1616 Cl      1  UNL1       -0.0822
     26 C         139.7147  139.8672  168.0242 C.ar    1  UNL1        0.0111
     27 C         140.9078  140.1959  167.1765 C.ar    1  UNL1       -0.0015
@<TRIPOS>BOND
     1     1     2    1
     2     2     3   ar
     3     3     4   ar
     4     4     5   ar
     5     5     6   ar
     6     6    12    1
     7    12    13    1
     8    13    14    1
     9    14    15    1
    10    15    16    1
    11    16    17    1
    12    17    18    1
    13    18    19    1
    14     6     7   ar
    15     7    20    1
    16    20    21    1
    17    21    22   ar
    18    22    23   ar
    19    23    24   ar
    20    24    25    1
    21    24    26   ar
    22    26    27   ar
    23     7     8   ar
    24     8     9   ar
    25     9    10   ar
    26    10    11    1
    27    10     2   ar
    28     8     4   ar
    29    18    14    1
    30    27    21   ar
@<TRIPOS>MOLECULE
*****
 27 30 0 0 0
SMALL
GASTEIGER

@<TRIPOS>ATOM
      1 C         142.7177  143.2572  170.6157 C.3     1  UNL1        0.0307
      2 C         142.1248  142.2982  169.6264 C.ar    1  UNL1       -0.0242
      3 C         143.0178  141.5368  168.6922 C.ar    1  UNL1        0.0160
      4 C         142.4249  140.5778  167.7029 C.ar    1  UNL1        0.0980
      5 N         143.0490  139.6941  166.6637 N.ar    1  UNL1       -0.2310
      6 C         141.9488  138.9504  165.9663 C.ar    1  UNL1        0.1206
      7 N         140.6448  139.3745  166.5744 N.ar    1  UNL1       -0.3107
      8 C         140.9391  140.3802  167.6476 C.ar    1  UNL1        0.0785
      9 C         140.0461  141.1417  168.5818 C.ar    1  UNL1        0.0142
     10 C         140.6389  142.1007  169.5711 C.ar    1  UNL1       -0.0243
     11 C         139.7458  142.8622  170.5053 C.3     1  UNL1        0.0307
     12 C         142.1221  137.9571  164.8557 C.3     1  UNL1        0.0653
     13 C         142.5534  138.4202  163.4958 C.3     1  UNL1        0.0239
     14 C         142.5589  139.8841  163.1688 C.3     1  UNL1        0.0580
     15 C         141.3907  140.6796  162.6665 C.3     1  UNL1        0.0174
     16 C         141.8433  142.0967  162.4740 C.3     1  UNL1        0.0187
     17 C         143.2913  142.1769  162.8574 C.3     1  UNL1        0.0721
     18 N         143.7336  140.8094  163.2869 N.3     1  UNL1       -0.2728
     19 C         145.1090  140.4334  163.7526 C.3     1  UNL1        0.0896
     20 C         139.2851  138.8797  166.1787 C.3     1  UNL1        0.1339
     21 C         138.7832  139.1014  164.7827 C.ar    1  UNL1        0.0005
     22 C         138.1828  140.4224  164.4025 C.ar    1  UNL1       -0.0015
     23 C         137.6809  140.6443  163.0065 C.ar    1  UNL1        0.0111
     24 C         137.7793  139.5451  161.9906 C.ar    1  UNL1        0.0577
     25 CL        137.2774  139.7668  160.5946 Cl      1  UNL1       -0.0822
     26 C         138.3797  138.2241  162.3707 C.ar    1  UNL1        0.0111
     27 C         138.8817  138.0023  163.7668 C.ar    1  UNL1       -0.0015
@<TRIPOS>BOND
     1     1     2    1
     2     2     3   ar
     3     3     4   ar
     4     4     5   ar
     5     5     6   ar
     6     6    12    1
     7    12    13    1
     8    13    14    1
     9    14    15    1
    10    15    16    1
    11    16    17    1
    12    17    18    1
    13    18    19    1
    14     6     7   ar
    15     7    20    1
    16    20    21    1
    17    21    22   ar
    18    22    23   ar
    19    23    24   ar
    20    24    25    1
    21    24    26   ar
    22    26    27   ar
    23     7     8   ar
    24     8     9   ar
    25     9    10   ar
    26    10    11    1
    27    10     2   ar
    28     8     4   ar
    29    18    14    1
    30    27    21   ar
@<TRIPOS>MOLECULE
*****
 27 30 0 0 0
SMALL
GASTEIGER

@<TRIPOS>ATOM
      1 C         140.7354  145.1026  159.1844 C.3     1  UNL1        0.0307
      2 C         141.3747  144.5914  160.4414 C.ar    1  UNL1       -0.0242
      3 C         142.4319  143.5300  160.3670 C.ar    1  UNL1        0.0160
      4 C         143.0713  143.0188  161.6240 C.ar    1  UNL1        0.0980
      5 N         144.1320  141.9852  161.8618 N.ar    1  UNL1       -0.2310
      6 C         144.3697  141.8967  163.3402 C.ar    1  UNL1        0.1206
      7 N         143.4558  142.8756  164.0160 N.ar    1  UNL1       -0.3107
      8 C         142.6534  143.5690  162.9553 C.ar    1  UNL1        0.0785
      9 C         141.5961  144.6305  163.0297 C.ar    1  UNL1        0.0142
     10 C         140.9568  145.1416  161.7727 C.ar    1  UNL1       -0.0243
     11 C         139.8995  146.2031  161.8472 C.3     1  UNL1        0.0307
     12 C         145.3492  140.9887  164.0230 C.3     1  UNL1        0.0653
     13 C         145.0999  139.5101  164.0622 C.3     1  UNL1        0.0239
     14 C         143.7005  138.9890  164.2035 C.3     1  UNL1        0.0580
     15 C         142.9122  138.9136  165.4774 C.3     1  UNL1        0.0174
     16 C         141.5682  138.3298  165.1569 C.3     1  UNL1        0.0187
     17 C         141.5257  138.0445  163.6849 C.3     1  UNL1        0.0721
     18 N         142.8437  138.4519  163.0956 N.3     1  UNL1       -0.2728
     19 C         143.2358  138.3416  161.6520 C.3     1  UNL1        0.0896
     20 C         143.3610  143.1183  165.4932 C.3     1  UNL1        0.1339
     21 C         142.3592  142.3624  166.3148 C.ar    1  UNL1        0.0005
     22 C         140.9656  142.1598  165.7983 C.ar    1  UNL1       -0.0015
     23 C         139.9637  141.4040  166.6199 C.ar    1  UNL1        0.0111
     24 C         140.3555  140.8506  167.9579 C.ar    1  UNL1        0.0577
     25 CL        139.3537  140.0948  168.7795 Cl      1  UNL1       -0.0822
     26 C         141.7491  141.0532  168.4744 C.ar    1  UNL1        0.0111
     27 C         142.7510  141.8091  167.6528 C.ar    1  UNL1       -0.0015
@<TRIPOS>BOND
     1     1     2    1
     2     2     3   ar
     3     3     4   ar
     4     4     5   ar
     5     5     6   ar
     6     6    12    1
     7    12    13    1
     8    13    14    1
     9    14    15    1
    10    15    16    1
    11    16    17    1
    12    17    18    1
    13    18    19    1
    14     6     7   ar
    15     7    20    1
    16    20    21    1
    17    21    22   ar
    18    22    23   ar
    19    23    24   ar
    20    24    25    1
    21    24    26   ar
    22    26    27   ar
    23     7     8   ar
    24     8     9   ar
    25     9    10   ar
    26    10    11    1
    27    10     2   ar
    28     8     4   ar
    29    18    14    1
    30    27    21   ar
@<TRIPOS>MOLECULE
*****
 27 30 0 0 0
SMALL
GASTEIGER

@<TRIPOS>ATOM
      1 C         143.1105  143.4354  170.7419 C.3     1  UNL1        0.0307
      2 C         142.4272  142.6370  169.6716 C.ar    1  UNL1       -0.0242
      3 C         143.1496  141.5045  169.0041 C.ar    1  UNL1        0.0160
      4 C         142.4662  140.7061  167.9338 C.ar    1  UNL1        0.0980
      5 N         142.9222  139.5425  167.1041 N.ar    1  UNL1       -0.2310
      6 C         141.7982  139.1575  166.1884 C.ar    1  UNL1        0.1206
      7 N         140.6476  140.0831  166.4523 N.ar    1  UNL1       -0.3107
      8 C         141.0605  141.0401  167.5310 C.ar    1  UNL1        0.0785
      9 C         140.3381  142.1726  168.1984 C.ar    1  UNL1        0.0142
     10 C         141.0215  142.9711  169.2688 C.ar    1  UNL1       -0.0243
     11 C         140.2990  144.1036  169.9363 C.3     1  UNL1        0.0307
     12 C         141.8207  138.0427  165.1851 C.3     1  UNL1        0.0653
     13 C         142.2538  138.3118  163.7745 C.3     1  UNL1        0.0239
     14 C         141.2342  138.3760  162.6762 C.3     1  UNL1        0.0580
     15 C         139.9072  137.6770  162.6631 C.3     1  UNL1        0.0174
     16 C         139.2155  138.0195  161.3770 C.3     1  UNL1        0.0187
     17 C         140.1150  138.9302  160.5951 C.3     1  UNL1        0.0721
     18 N         141.3628  139.1506  161.3981 N.3     1  UNL1       -0.2728
     19 C         142.5333  139.9970  160.9938 C.3     1  UNL1        0.0896
     20 C         139.3177  140.0563  165.7591 C.3     1  UNL1        0.1339
     21 C         139.1411  140.7624  164.4476 C.ar    1  UNL1        0.0005
     22 C         137.8453  140.6449  163.7010 C.ar    1  UNL1       -0.0015
     23 C         137.6687  141.3509  162.3894 C.ar    1  UNL1        0.0111
     24 C         138.7878  142.1744  161.8242 C.ar    1  UNL1        0.0577
     25 CL        138.6112  142.8804  160.5127 Cl      1  UNL1       -0.0822
     26 C         140.0835  142.2920  162.5707 C.ar    1  UNL1        0.0111
     27 C         140.2602  141.5859  163.8824 C.ar    1  UNL1       -0.0015
@<TRIPOS>BOND
     1     1     2    1
     2     2     3   ar
     3     3     4   ar
     4     4     5   ar
     5     5     6   ar
     6     6    12    1
     7    12    13    1
     8    13    14    1
     9    14    15    1
    10    15    16    1
    11    16    17    1
    12    17    18    1
    13    18    19    1
    14     6     7   ar
    15     7    20    1
    16    20    21    1
    17    21    22   ar
    18    22    23   ar
    19    23    24   ar
    20    24    25    1
    21    24    26   ar
    22    26    27   ar
    23     7     8   ar
    24     8     9   ar
    25     9    10   ar
    26    10    11    1
    27    10     2   ar
    28     8     4   ar
    29    18    14    1
    30    27    21   ar
@<TRIPOS>MOLECULE
*****
 27 30 0 0 0
SMALL
GASTEIGER

@<TRIPOS>ATOM
      1 C         138.9816  145.2345  162.5287 C.3     1  UNL1        0.0307
      2 C         139.0444  143.9101  163.2301 C.ar    1  UNL1       -0.0242
      3 C         139.3282  142.6609  162.4498 C.ar    1  UNL1        0.0160
      4 C         139.3910  141.3365  163.1512 C.ar    1  UNL1        0.0980
      5 N         139.6496  139.9465  162.6499 N.ar    1  UNL1       -0.2310
      6 C         139.5885  139.0123  163.8218 C.ar    1  UNL1        0.1206
      7 N         139.2921  139.8249  165.0474 N.ar    1  UNL1       -0.3107
      8 C         139.1701  141.2613  164.6329 C.ar    1  UNL1        0.0785
      9 C         138.8863  142.5105  165.4132 C.ar    1  UNL1        0.0142
     10 C         138.8235  143.8349  164.7118 C.ar    1  UNL1       -0.0243
     11 C         138.5397  145.0841  165.4922 C.3     1  UNL1        0.0307
     12 C         139.7886  137.5264  163.7763 C.3     1  UNL1        0.0653
     13 C         141.1335  136.9407  164.0899 C.3     1  UNL1        0.0239
     14 C         142.3490  137.8195  164.1055 C.3     1  UNL1        0.0580
     15 C         143.0355  138.3531  165.3277 C.3     1  UNL1        0.0174
     16 C         144.2022  139.1823  164.8792 C.3     1  UNL1        0.0187
     17 C         144.2367  139.1613  163.3798 C.3     1  UNL1        0.0721
     18 N         143.0912  138.3190  162.9015 N.3     1  UNL1       -0.2728
     19 C         142.7484  138.0274  161.4706 C.3     1  UNL1        0.0896
     20 C         139.1439  139.2942  166.4425 C.3     1  UNL1        0.1339
     21 C         139.8543  139.9659  167.5800 C.ar    1  UNL1        0.0005
     22 C         139.1394  140.1987  168.8780 C.ar    1  UNL1       -0.0015
     23 C         139.8498  140.8705  170.0156 C.ar    1  UNL1        0.0111
     24 C         141.2751  141.3096  169.8551 C.ar    1  UNL1        0.0577
     25 CL        141.9856  141.9813  170.9926 Cl      1  UNL1       -0.0822
     26 C         141.9900  141.0768  168.5572 C.ar    1  UNL1        0.0111
     27 C         141.2796  140.4050  167.4196 C.ar    1  UNL1       -0.0015
@<TRIPOS>BOND
     1     1     2    1
     2     2     3   ar
     3     3     4   ar
     4     4     5   ar
     5     5     6   ar
     6     6    12    1
     7    12    13    1
     8    13    14    1
     9    14    15    1
    10    15    16    1
    11    16    17    1
    12    17    18    1
    13    18    19    1
    14     6     7   ar
    15     7    20    1
    16    20    21    1
    17    21    22   ar
    18    22    23   ar
    19    23    24   ar
    20    24    25    1
    21    24    26   ar
    22    26    27   ar
    23     7     8   ar
    24     8     9   ar
    25     9    10   ar
    26    10    11    1
    27    10     2   ar
    28     8     4   ar
    29    18    14    1
    30    27    21   ar
@<TRIPOS>MOLECULE
*****
 27 30 0 0 0
SMALL
GASTEIGER

@<TRIPOS>ATOM
      1 C         139.6691  143.0338  170.7037 C.3     1  UNL1        0.0307
      2 C         140.2946  142.2312  169.6016 C.ar    1  UNL1       -0.0242
      3 C         141.4134  142.8149  168.7907 C.ar    1  UNL1        0.0160
      4 C         142.0389  142.0123  167.6886 C.ar    1  UNL1        0.0980
      5 N         143.1492  142.3206  166.7281 N.ar    1  UNL1       -0.2310
      6 C         143.3420  141.1248  165.8434 C.ar    1  UNL1        0.1206
      7 N         142.3510  140.0775  166.2570 N.ar    1  UNL1       -0.3107
      8 C         141.5456  140.6260  167.3973 C.ar    1  UNL1        0.0785
      9 C         140.4269  140.0423  168.2082 C.ar    1  UNL1        0.0142
     10 C         139.8014  140.8449  169.3103 C.ar    1  UNL1       -0.0243
     11 C         138.6825  140.2611  170.1212 C.3     1  UNL1        0.0307
     12 C         144.3491  140.9984  164.7388 C.3     1  UNL1        0.0653
     13 C         143.9531  141.3023  163.3244 C.3     1  UNL1        0.0239
     14 C         142.7439  142.1460  163.0489 C.3     1  UNL1        0.0580
     15 C         141.4181  141.6511  162.5518 C.3     1  UNL1        0.0174
     16 C         140.5030  142.8320  162.4179 C.3     1  UNL1        0.0187
     17 C         141.2632  144.0569  162.8323 C.3     1  UNL1        0.0721
     18 N         142.6483  143.6329  163.2223 N.3     1  UNL1       -0.2728
     19 C         143.7450  144.5371  163.7015 C.3     1  UNL1        0.0896
     20 C         142.1930  138.7200  165.6387 C.3     1  UNL1        0.1339
     21 C         141.3158  138.5414  164.4351 C.ar    1  UNL1        0.0005
     22 C         139.8502  138.8488  164.5230 C.ar    1  UNL1       -0.0015
     23 C         138.9730  138.6702  163.3194 C.ar    1  UNL1        0.0111
     24 C         139.5613  138.1843  162.0280 C.ar    1  UNL1        0.0577
     25 CL        138.6841  138.0058  160.8244 Cl      1  UNL1       -0.0822
     26 C         141.0268  137.8770  161.9401 C.ar    1  UNL1        0.0111
     27 C         141.9041  138.0556  163.1437 C.ar    1  UNL1       -0.0015
@<TRIPOS>BOND
     1     1     2    1
     2     2     3   ar
     3     3     4   ar
     4     4     5   ar
     5     5     6   ar
     6     6    12    1
     7    12    13    1
     8    13    14    1
     9    14    15    1
    10    15    16    1
    11    16    17    1
    12    17    18    1
    13    18    19    1
    14     6     7   ar
    15     7    20    1
    16    20    21    1
    17    21    22   ar
    18    22    23   ar
    19    23    24   ar
    20    24    25    1
    21    24    26   ar
    22    26    27   ar
    23     7     8   ar
    24     8     9   ar
    25     9    10   ar
    26    10    11    1
    27    10     2   ar
    28     8     4   ar
    29    18    14    1
    30    27    21   ar
@<TRIPOS>MOLECULE
*****
 27 30 0 0 0
SMALL
GASTEIGER

@<TRIPOS>ATOM
      1 C         142.4272  139.7091  170.2293 C.3     1  UNL1        0.0307
      2 C         142.6570  140.2415  168.8459 C.ar    1  UNL1       -0.0242
      3 C         142.5113  139.3352  167.6596 C.ar    1  UNL1        0.0160
      4 C         142.7411  139.8676  166.2762 C.ar    1  UNL1        0.0980
      5 N         142.6712  139.2176  164.9261 N.ar    1  UNL1       -0.2310
      6 C         143.0035  140.2547  163.8947 C.ar    1  UNL1        0.1206
      7 N         143.2787  141.5457  164.6073 N.ar    1  UNL1       -0.3107
      8 C         143.1165  141.3064  166.0791 C.ar    1  UNL1        0.0785
      9 C         143.2622  142.2127  167.2654 C.ar    1  UNL1        0.0142
     10 C         143.0325  141.6803  168.6488 C.ar    1  UNL1       -0.0243
     11 C         143.1782  142.5868  169.8351 C.3     1  UNL1        0.0307
     12 C         143.0520  140.0388  162.4110 C.3     1  UNL1        0.0653
     13 C         141.8214  140.2549  161.5810 C.3     1  UNL1        0.0239
     14 C         140.4773  140.3416  162.2411 C.3     1  UNL1        0.0580
     15 C         139.7078  141.6002  162.5123 C.3     1  UNL1        0.0174
     16 C         138.4216  141.2214  163.1847 C.3     1  UNL1        0.0187
     17 C         138.3962  139.7286  163.3291 C.3     1  UNL1        0.0721
     18 N         139.6668  139.1848  162.7460 N.3     1  UNL1       -0.2728
     19 C         140.0580  137.7382  162.6793 C.3     1  UNL1        0.0896
     20 C         143.6508  142.8473  163.9614 C.3     1  UNL1        0.1339
     21 C         142.5877  143.7149  163.3556 C.ar    1  UNL1        0.0005
     22 C         142.5588  143.9410  161.8729 C.ar    1  UNL1       -0.0015
     23 C         141.4958  144.8086  161.2671 C.ar    1  UNL1        0.0111
     24 C         140.4615  145.4502  162.1438 C.ar    1  UNL1        0.0577
     25 CL        139.3984  146.3178  161.5380 Cl      1  UNL1       -0.0822
     26 C         140.4903  145.2242  163.6264 C.ar    1  UNL1        0.0111
     27 C         141.5534  144.3565  164.2323 C.ar    1  UNL1       -0.0015
@<TRIPOS>BOND
     1     1     2    1
     2     2     3   ar
     3     3     4   ar
     4     4     5   ar
     5     5     6   ar
     6     6    12    1
     7    12    13    1
     8    13    14    1
     9    14    15    1
    10    15    16    1
    11    16    17    1
    12    17    18    1
    13    18    19    1
    14     6     7   ar
    15     7    20    1
    16    20    21    1
    17    21    22   ar
    18    22    23   ar
    19    23    24   ar
    20    24    25    1
    21    24    26   ar
    22    26    27   ar
    23     7     8   ar
    24     8     9   ar
    25     9    10   ar
    26    10    11    1
    27    10     2   ar
    28     8     4   ar
    29    18    14    1
    30    27    21   ar
@<TRIPOS>MOLECULE
*****
 27 30 0 0 0
SMALL
GASTEIGER

@<TRIPOS>ATOM
      1 C         142.5122  139.5133  170.3952 C.3     1  UNL1        0.0307
      2 C         141.9842  139.7292  169.0079 C.ar    1  UNL1       -0.0242
      3 C         142.7767  139.2629  167.8227 C.ar    1  UNL1        0.0160
      4 C         142.2486  139.4789  166.4355 C.ar    1  UNL1        0.0980
      5 N         142.8020  139.1305  165.0854 N.ar    1  UNL1       -0.2310
      6 C         141.8234  139.5975  164.0489 C.ar    1  UNL1        0.1206
      7 N         140.6654  140.2344  164.7583 N.ar    1  UNL1       -0.3107
      8 C         140.9282  140.1611  166.2333 C.ar    1  UNL1        0.0785
      9 C         140.1357  140.6273  167.4184 C.ar    1  UNL1        0.0142
     10 C         140.6637  140.4114  168.8057 C.ar    1  UNL1       -0.0243
     11 C         139.8712  140.8777  169.9909 C.3     1  UNL1        0.0307
     12 C         141.9761  139.4530  162.5636 C.3     1  UNL1        0.0653
     13 C         143.1113  140.1322  161.8568 C.3     1  UNL1        0.0239
     14 C         143.4180  141.5725  162.1420 C.3     1  UNL1        0.0580
     15 C         142.6676  142.7563  161.6077 C.3     1  UNL1        0.0174
     16 C         143.3148  143.9974  162.1470 C.3     1  UNL1        0.0187
     17 C         144.4652  143.5806  163.0147 C.3     1  UNL1        0.0721
     18 N         144.5291  142.0819  163.0116 N.3     1  UNL1       -0.2728
     19 C         145.5284  141.2405  163.7486 C.3     1  UNL1        0.0896
     20 C         139.4567  140.8386  164.1072 C.3     1  UNL1        0.1339
     21 C         139.5241  142.2263  163.5418 C.ar    1  UNL1        0.0005
     22 C         139.9959  143.3633  164.3990 C.ar    1  UNL1       -0.0015
     23 C         140.0633  144.7510  163.8338 C.ar    1  UNL1        0.0111
     24 C         139.6589  145.0019  162.4113 C.ar    1  UNL1        0.0577
     25 CL        139.7263  146.3896  161.8460 Cl      1  UNL1       -0.0822
     26 C         139.1871  143.8650  161.5541 C.ar    1  UNL1        0.0111
     27 C         139.1197  142.4772  162.1193 C.ar    1  UNL1       -0.0015
@<TRIPOS>BOND
     1     1     2    1
     2     2     3   ar
     3     3     4   ar
     4     4     5   ar
     5     5     6   ar
     6     6    12    1
     7    12    13    1
     8    13    14    1
     9    14    15    1
    10    15    16    1
    11    16    17    1
    12    17    18    1
    13    18    19    1
    14     6     7   ar
    15     7    20    1
    16    20    21    1
    17    21    22   ar
    18    22    23   ar
    19    23    24   ar
    20    24    25    1
    21    24    26   ar
    22    26    27   ar
    23     7     8   ar
    24     8     9   ar
    25     9    10   ar
    26    10    11    1
    27    10     2   ar
    28     8     4   ar
    29    18    14    1
    30    27    21   ar
