@<TRIPOS>MOLECULE
*****
 42 45 0 0 0
SMALL
GASTEIGER

@<TRIPOS>ATOM
      1 C         147.1053  142.3270  156.3231 C.3     1  UNL1        0.0949
      2 C         145.9148  141.4202  156.4247 C.2     1  UNL1        0.2269
      3 O         145.7054  140.3404  155.4048 O.2     1  UNL1       -0.2748
      4 N         144.9336  141.5932  157.5460 N.am    1  UNL1       -0.2655
      5 C         145.0108  142.6229  158.6341 C.3     1  UNL1        0.1206
      6 C         143.8279  142.4330  159.5367 C.ar    1  UNL1       -0.0030
      7 C         143.3824  143.1563  160.7729 C.ar    1  UNL1        0.0155
      8 C         142.1286  142.7327  161.4789 C.ar    1  UNL1        0.1054
      9 C         141.3203  141.5856  160.9487 C.ar    1  UNL1        0.0181
     10 C         141.7659  140.8623  159.7125 C.ar    1  UNL1       -0.0011
     11 C         143.0197  141.2860  159.0065 C.ar    1  UNL1        0.0022
     12 C         143.7030  140.7670  157.7762 C.3     1  UNL1        0.1750
     13 C         143.2375  139.6227  156.9255 C.2     1  UNL1        0.2485
     14 O         142.6326  139.8869  155.5786 O.2     1  UNL1       -0.2726
     15 N         143.3769  138.2139  157.4217 N.am    1  UNL1       -0.2823
     16 H         143.7739  138.0404  158.3057 H       1  UNL1        0.1549
     17 C         142.9114  137.0696  156.5709 C.ar    1  UNL1        0.0503
     18 C         143.9132  136.1575  155.9272 C.ar    1  UNL1        0.0144
     19 C         143.4477  135.0132  155.0764 C.ar    1  UNL1       -0.0002
     20 C         141.9803  134.7810  154.8695 C.ar    1  UNL1        0.0182
     21 C         140.9785  135.6930  155.5133 C.ar    1  UNL1       -0.0002
     22 C         141.4440  136.8373  156.3640 C.ar    1  UNL1        0.0144
     23 C         141.5147  133.6366  154.0187 C.3     1  UNL1        0.2827
     24 O         141.1323  134.5991  152.9336 O.3     1  UNL1       -0.3692
     25 H         140.7660  134.1089  152.1810 H       1  UNL1        0.2112
     26 C         141.0490  132.4924  153.1679 C.3     1  UNL1        0.4311
     27 F         140.5834  131.3481  152.3171 F       1  UNL1       -0.1669
     28 F         142.1106  132.8117  152.1574 F       1  UNL1       -0.1669
     29 F         140.3933  132.2228  153.6990 F       1  UNL1       -0.1669
     30 C         141.8970  132.6742  155.1039 C.3     1  UNL1        0.4311
     31 F         142.2794  131.7118  156.1889 F       1  UNL1       -0.1669
     32 F         143.1282  132.0004  154.5742 F       1  UNL1       -0.1669
     33 F         141.2369  132.8712  155.6605 F       1  UNL1       -0.1669
     34 S         141.6830  143.4560  162.7152 S.O2    1  UNL1        0.0097
     35 O         142.5534  144.6209  162.3474 O.2     1  UNL1       -0.1686
     36 O         140.8126  142.2911  163.0830 O.2     1  UNL1       -0.1686
     37 C         141.2374  144.1793  163.9514 C.3     1  UNL1        0.1698
     38 C         139.7880  144.5151  164.1425 C.3     1  UNL1        0.1017
     39 C         138.4305  144.5919  164.7760 C.3     1  UNL1        0.0169
     40 C         139.5493  143.8856  165.4829 C.3     1  UNL1        0.0169
     41 C         139.5234  145.2613  162.8685 C.1     1  UNL1        0.0728
     42 N         139.2589  146.0075  161.5943 N.1     1  UNL1       -0.1959
@<TRIPOS>BOND
     1     1     2    1
     2     2     3    2
     3     2     4   am
     4     4     5    1
     5     5     6    1
     6     6     7   ar
     7     7     8   ar
     8     8    34    1
     9    34    35    2
    10    34    36    2
    11    34    37    1
    12    37    38    1
    13    38    41    1
    14    41    42    3
    15    38    39    1
    16    39    40    1
    17     8     9   ar
    18     9    10   ar
    19    10    11   ar
    20    11    12    1
    21    12    13    1
    22    13    14    2
    23    13    15   am
    24    15    17    1
    25    17    18   ar
    26    18    19   ar
    27    19    20   ar
    28    20    23    1
    29    23    24    1
    30    23    26    1
    31    26    27    1
    32    26    28    1
    33    26    29    1
    34    23    30    1
    35    30    31    1
    36    30    32    1
    37    30    33    1
    38    20    21   ar
    39    21    22   ar
    40    12     4    1
    41    22    17   ar
    42    11     6   ar
    43    40    38    1
    44    15    16    1
    45    24    25    1
@<TRIPOS>MOLECULE
*****
 42 45 0 0 0
SMALL
GASTEIGER

@<TRIPOS>ATOM
      1 C         141.4746  144.8430  159.1636 C.3     1  UNL1        0.0949
      2 C         141.6409  143.7362  160.1622 C.2     1  UNL1        0.2269
      3 O         141.5910  144.0374  161.6308 O.2     1  UNL1       -0.2748
      4 N         141.8570  142.3282  159.6923 N.am    1  UNL1       -0.2655
      5 C         141.9297  141.8769  158.2637 C.3     1  UNL1        0.1206
      6 C         142.1560  140.3941  158.2569 C.ar    1  UNL1       -0.0030
      7 C         142.3095  139.4073  157.1377 C.ar    1  UNL1        0.0155
      8 C         142.5303  137.9554  157.4430 C.ar    1  UNL1        0.1054
      9 C         142.5975  137.4903  158.8675 C.ar    1  UNL1        0.0181
     10 C         142.4440  138.4771  159.9867 C.ar    1  UNL1       -0.0011
     11 C         142.2232  139.9290  159.6814 C.ar    1  UNL1        0.0022
     12 C         142.0384  141.1243  160.5685 C.3     1  UNL1        0.1750
     13 C         142.0356  141.1171  162.0685 C.2     1  UNL1        0.2485
     14 O         143.3254  140.9721  162.8203 O.2     1  UNL1       -0.2726
     15 N         140.7428  141.2547  162.8167 N.am    1  UNL1       -0.2823
     16 H         139.8962  141.3499  162.3233 H       1  UNL1        0.1549
     17 C         140.7399  141.2475  164.3167 C.ar    1  UNL1        0.0503
     18 C         140.8334  139.9483  165.0606 C.ar    1  UNL1        0.0144
     19 C         140.8305  139.9410  166.5606 C.ar    1  UNL1       -0.0002
     20 C         140.7342  141.2329  167.3166 C.ar    1  UNL1        0.0182
     21 C         140.6408  142.5321  166.5727 C.ar    1  UNL1       -0.0002
     22 C         140.6436  142.5394  165.0727 C.ar    1  UNL1        0.0144
     23 C         140.7314  141.2257  168.8166 C.3     1  UNL1        0.2827
     24 O         139.4257  140.4874  168.8105 O.3     1  UNL1       -0.3692
     25 H         139.1424  140.3238  169.7237 H       1  UNL1        0.2112
     26 C         140.7284  141.2185  170.3166 C.3     1  UNL1        0.4311
     27 F         140.7255  141.2113  171.8166 F       1  UNL1       -0.1669
     28 F         139.4829  142.0544  170.3182 F       1  UNL1       -0.1669
     29 F         141.4582  140.7281  170.4236 F       1  UNL1       -0.1669
     30 C         142.0371  141.9641  168.8227 C.3     1  UNL1        0.4311
     31 F         143.3427  142.7024  168.8289 F       1  UNL1       -0.1669
     32 F         141.6868  143.3162  169.3698 F       1  UNL1       -0.1669
     33 F         142.5333  141.3085  168.4936 F       1  UNL1       -0.1669
     34 S         142.6839  136.9685  156.3238 S.O2    1  UNL1        0.0097
     35 O         141.2316  136.6115  156.4393 O.2     1  UNL1       -0.1686
     36 O         144.1361  137.3256  156.2083 O.2     1  UNL1       -0.1686
     37 C         142.8375  135.9817  155.2046 C.3     1  UNL1        0.1698
     38 C         142.3946  134.5608  155.3915 C.3     1  UNL1        0.1017
     39 C         141.7050  133.2538  155.1340 C.3     1  UNL1        0.0169
     40 C         141.5302  134.3955  154.1768 C.3     1  UNL1        0.0169
     41 C         143.1053  134.2327  156.6711 C.1     1  UNL1        0.0728
     42 N         143.8160  133.9045  157.9507 N.1     1  UNL1       -0.1959
@<TRIPOS>BOND
     1     1     2    1
     2     2     3    2
     3     2     4   am
     4     4     5    1
     5     5     6    1
     6     6     7   ar
     7     7     8   ar
     8     8    34    1
     9    34    35    2
    10    34    36    2
    11    34    37    1
    12    37    38    1
    13    38    41    1
    14    41    42    3
    15    38    39    1
    16    39    40    1
    17     8     9   ar
    18     9    10   ar
    19    10    11   ar
    20    11    12    1
    21    12    13    1
    22    13    14    2
    23    13    15   am
    24    15    17    1
    25    17    18   ar
    26    18    19   ar
    27    19    20   ar
    28    20    23    1
    29    23    24    1
    30    23    26    1
    31    26    27    1
    32    26    28    1
    33    26    29    1
    34    23    30    1
    35    30    31    1
    36    30    32    1
    37    30    33    1
    38    20    21   ar
    39    21    22   ar
    40    12     4    1
    41    22    17   ar
    42    11     6   ar
    43    40    38    1
    44    15    16    1
    45    24    25    1
@<TRIPOS>MOLECULE
*****
 42 45 0 0 0
SMALL
GASTEIGER

@<TRIPOS>ATOM
      1 C         137.4072  138.1605  161.3656 C.3     1  UNL1        0.0949
      2 C         137.9657  139.5480  161.2517 C.2     1  UNL1        0.2269
      3 O         137.7082  140.3611  160.0178 O.2     1  UNL1       -0.2748
      4 N         138.7816  140.1224  162.3717 N.am    1  UNL1       -0.2655
      5 C         139.1206  139.4322  163.6596 C.3     1  UNL1        0.1206
      6 C         139.9502  140.3710  164.4843 C.ar    1  UNL1       -0.0030
      7 C         140.5699  140.2332  165.8433 C.ar    1  UNL1        0.0155
      8 C         141.3634  141.3659  166.4241 C.ar    1  UNL1        0.1054
      9 C         141.5372  142.6364  165.6459 C.ar    1  UNL1        0.0181
     10 C         140.9175  142.7743  164.2869 C.ar    1  UNL1       -0.0011
     11 C         140.1240  141.6416  163.7061 C.ar    1  UNL1        0.0022
     12 C         139.4017  141.4879  162.4005 C.3     1  UNL1        0.1750
     13 C         139.3149  142.5187  161.3143 C.2     1  UNL1        0.2485
     14 O         138.2670  143.5900  161.3790 O.2     1  UNL1       -0.2726
     15 N         140.2760  142.4783  160.1633 N.am    1  UNL1       -0.2823
     16 H         140.9638  141.7752  160.1208 H       1  UNL1        0.1549
     17 C         140.1892  143.5092  159.0771 C.ar    1  UNL1        0.0503
     18 C         139.3441  143.2520  157.8648 C.ar    1  UNL1        0.0144
     19 C         139.2572  144.2828  156.7786 C.ar    1  UNL1       -0.0002
     20 C         140.0155  145.5709  156.9048 C.ar    1  UNL1        0.0182
     21 C         140.8606  145.8281  158.1171 C.ar    1  UNL1       -0.0002
     22 C         140.9474  144.7972  159.2033 C.ar    1  UNL1        0.0144
     23 C         139.9287  146.6018  155.8187 C.3     1  UNL1        0.2827
     24 O         139.2503  147.5446  156.7679 O.3     1  UNL1       -0.3692
     25 H         139.0511  148.3764  156.3103 H       1  UNL1        0.2112
     26 C         139.8418  147.6328  154.7326 C.3     1  UNL1        0.4311
     27 F         139.7550  148.6638  153.6465 F       1  UNL1       -0.1669
     28 F         138.3444  147.5786  154.8008 F       1  UNL1       -0.1669
     29 F         140.7133  147.7388  154.6144 F       1  UNL1       -0.1669
     30 C         140.6071  145.6591  154.8695 C.3     1  UNL1        0.4311
     31 F         141.2855  144.7163  153.9203 F       1  UNL1       -0.1669
     32 F         139.5236  145.2704  153.9076 F       1  UNL1       -0.1669
     33 F         141.4094  145.6882  155.2434 F       1  UNL1       -0.1669
     34 S         141.9831  141.2281  167.7832 S.O2    1  UNL1        0.0097
     35 O         140.9724  140.1780  168.1377 O.2     1  UNL1       -0.1686
     36 O         142.9938  142.2782  167.4287 O.2     1  UNL1       -0.1686
     37 C         142.6029  141.0903  169.1422 C.3     1  UNL1        0.1698
     38 C         142.6697  142.2752  170.0596 C.3     1  UNL1        0.1017
     39 C         143.2411  143.4093  170.8580 C.3     1  UNL1        0.0169
     40 C         144.1459  142.5404  170.0353 C.3     1  UNL1        0.0169
     41 C         141.2168  142.4214  170.4025 C.1     1  UNL1        0.0728
     42 N         139.7638  142.5675  170.7455 N.1     1  UNL1       -0.1959
@<TRIPOS>BOND
     1     1     2    1
     2     2     3    2
     3     2     4   am
     4     4     5    1
     5     5     6    1
     6     6     7   ar
     7     7     8   ar
     8     8    34    1
     9    34    35    2
    10    34    36    2
    11    34    37    1
    12    37    38    1
    13    38    41    1
    14    41    42    3
    15    38    39    1
    16    39    40    1
    17     8     9   ar
    18     9    10   ar
    19    10    11   ar
    20    11    12    1
    21    12    13    1
    22    13    14    2
    23    13    15   am
    24    15    17    1
    25    17    18   ar
    26    18    19   ar
    27    19    20   ar
    28    20    23    1
    29    23    24    1
    30    23    26    1
    31    26    27    1
    32    26    28    1
    33    26    29    1
    34    23    30    1
    35    30    31    1
    36    30    32    1
    37    30    33    1
    38    20    21   ar
    39    21    22   ar
    40    12     4    1
    41    22    17   ar
    42    11     6   ar
    43    40    38    1
    44    15    16    1
    45    24    25    1
@<TRIPOS>MOLECULE
*****
 42 45 0 0 0
SMALL
GASTEIGER

@<TRIPOS>ATOM
      1 C         139.9967  144.5555  158.9686 C.3     1  UNL1        0.0949
      2 C         140.5414  143.6011  159.9895 C.2     1  UNL1        0.2269
      3 O         140.6261  144.0115  161.4298 O.2     1  UNL1       -0.2748
      4 N         141.0015  142.2364  159.5702 N.am    1  UNL1       -0.2655
      5 C         140.9780  141.6883  158.1741 C.3     1  UNL1        0.1206
      6 C         141.5278  140.2933  158.2144 C.ar    1  UNL1       -0.0030
      7 C         141.7445  139.2685  157.1408 C.ar    1  UNL1        0.0155
      8 C         142.3246  137.9296  157.4882 C.ar    1  UNL1        0.1054
      9 C         142.6880  137.6154  158.9092 C.ar    1  UNL1        0.0181
     10 C         142.4713  138.6402  159.9828 C.ar    1  UNL1       -0.0011
     11 C         141.8912  139.9792  159.6354 C.ar    1  UNL1        0.0022
     12 C         141.5659  141.1801  160.4733 C.3     1  UNL1        0.1750
     13 C         141.7693  141.3030  161.9544 C.2     1  UNL1        0.2485
     14 O         143.1392  141.5703  162.5037 O.2     1  UNL1       -0.2726
     15 N         140.6027  141.1586  162.8862 N.am    1  UNL1       -0.2823
     16 H         139.7035  140.9832  162.5257 H       1  UNL1        0.1549
     17 C         140.8061  141.2816  164.3673 C.ar    1  UNL1        0.0503
     18 C         141.2981  140.1051  165.1570 C.ar    1  UNL1        0.0144
     19 C         141.5016  140.2280  166.6380 C.ar    1  UNL1       -0.0002
     20 C         141.2129  141.5275  167.3293 C.ar    1  UNL1        0.0182
     21 C         140.7209  142.7041  166.5396 C.ar    1  UNL1       -0.0002
     22 C         140.5174  142.5811  165.0585 C.ar    1  UNL1        0.0144
     23 C         141.4163  141.6506  168.8104 C.3     1  UNL1        0.2827
     24 O         142.6340  142.4937  168.5730 O.3     1  UNL1       -0.3692
     25 H         143.0205  142.7505  169.4248 H       1  UNL1        0.2112
     26 C         141.6198  141.7737  170.2914 C.3     1  UNL1        0.4311
     27 F         141.8232  141.8968  171.7725 F       1  UNL1       -0.1669
     28 F         142.8891  140.9819  170.1828 F       1  UNL1       -0.1669
     29 F         140.8904  142.2466  170.4616 F       1  UNL1       -0.1669
     30 C         140.1986  140.8074  169.0478 C.3     1  UNL1        0.4311
     31 F         138.9810  139.9643  169.2851 F       1  UNL1       -0.1669
     32 F         140.7498  139.5106  169.5622 F       1  UNL1       -0.1669
     33 F         139.6002  141.4068  168.7888 F       1  UNL1       -0.1669
     34 S         142.5414  136.9047  156.4145 S.O2    1  UNL1        0.0097
     35 O         141.0780  136.5759  156.4328 O.2     1  UNL1       -0.1686
     36 O         144.0048  137.2334  156.3962 O.2     1  UNL1       -0.1686
     37 C         142.7582  135.8798  155.3409 C.3     1  UNL1        0.1698
     38 C         142.3326  134.4588  155.5635 C.3     1  UNL1        0.1017
     39 C         141.6586  133.1376  155.3394 C.3     1  UNL1        0.0169
     40 C         141.4695  134.2529  154.3542 C.3     1  UNL1        0.0169
     41 C         143.0480  134.1713  156.8502 C.1     1  UNL1        0.0728
     42 N         143.7635  133.8839  158.1369 N.1     1  UNL1       -0.1959
@<TRIPOS>BOND
     1     1     2    1
     2     2     3    2
     3     2     4   am
     4     4     5    1
     5     5     6    1
     6     6     7   ar
     7     7     8   ar
     8     8    34    1
     9    34    35    2
    10    34    36    2
    11    34    37    1
    12    37    38    1
    13    38    41    1
    14    41    42    3
    15    38    39    1
    16    39    40    1
    17     8     9   ar
    18     9    10   ar
    19    10    11   ar
    20    11    12    1
    21    12    13    1
    22    13    14    2
    23    13    15   am
    24    15    17    1
    25    17    18   ar
    26    18    19   ar
    27    19    20   ar
    28    20    23    1
    29    23    24    1
    30    23    26    1
    31    26    27    1
    32    26    28    1
    33    26    29    1
    34    23    30    1
    35    30    31    1
    36    30    32    1
    37    30    33    1
    38    20    21   ar
    39    21    22   ar
    40    12     4    1
    41    22    17   ar
    42    11     6   ar
    43    40    38    1
    44    15    16    1
    45    24    25    1
@<TRIPOS>MOLECULE
*****
 42 45 0 0 0
SMALL
GASTEIGER

@<TRIPOS>ATOM
      1 C         139.2658  146.5173  161.5168 C.3     1  UNL1        0.0949
      2 C         140.3435  145.4973  161.2977 C.2     1  UNL1        0.2269
      3 O         141.1232  145.4935  160.0163 O.2     1  UNL1       -0.2748
      4 N         140.6414  144.4810  162.3599 N.am    1  UNL1       -0.2655
      5 C         139.9490  144.3618  163.6852 C.3     1  UNL1        0.1206
      6 C         140.5637  143.2126  164.4277 C.ar    1  UNL1       -0.0030
      7 C         140.2856  142.6280  165.7808 C.ar    1  UNL1        0.0155
      8 C         141.0798  141.4523  166.2675 C.ar    1  UNL1        0.1054
      9 C         142.1522  140.8612  165.4012 C.ar    1  UNL1        0.0181
     10 C         142.4303  141.4458  164.0481 C.ar    1  UNL1       -0.0011
     11 C         141.6361  142.6215  163.5614 C.ar    1  UNL1        0.0022
     12 C         141.6841  143.4054  162.2834 C.3     1  UNL1        0.1750
     13 C         142.6120  143.1572  161.1312 C.2     1  UNL1        0.2485
     14 O         144.0657  143.5070  161.2501 O.2     1  UNL1       -0.2726
     15 N         142.0860  142.5593  159.8600 N.am    1  UNL1       -0.2823
     16 H         141.1318  142.3297  159.7819 H       1  UNL1        0.1549
     17 C         143.0138  142.3111  158.7078 C.ar    1  UNL1        0.0503
     18 C         144.0122  141.1937  158.7760 C.ar    1  UNL1        0.0144
     19 C         144.9400  140.9456  157.6238 C.ar    1  UNL1       -0.0002
     20 C         144.8694  141.8149  156.4035 C.ar    1  UNL1        0.0182
     21 C         143.8711  142.9323  156.3353 C.ar    1  UNL1       -0.0002
     22 C         142.9432  143.1804  157.4875 C.ar    1  UNL1        0.0144
     23 C         145.7973  141.5668  155.2512 C.3     1  UNL1        0.2827
     24 O         146.2812  142.9840  155.3359 O.3     1  UNL1       -0.3692
     25 H         146.9512  143.1383  154.6517 H       1  UNL1        0.2112
     26 C         146.7251  141.3188  154.0990 C.3     1  UNL1        0.4311
     27 F         147.6529  141.0708  152.9468 F       1  UNL1       -0.1669
     28 F         147.9030  141.4622  155.0166 F       1  UNL1       -0.1669
     29 F         146.1015  141.2169  153.4783 F       1  UNL1       -0.1669
     30 C         145.3133  140.1495  155.1665 C.3     1  UNL1        0.4311
     31 F         144.8293  138.7324  155.0818 F       1  UNL1       -0.1669
     32 F         143.9241  140.2728  154.6143 F       1  UNL1       -0.1669
     33 F         146.0468  139.7660  155.4816 F       1  UNL1       -0.1669
     34 S         140.8016  140.8677  167.6207 S.O2    1  UNL1        0.0097
     35 O         141.1894  142.1671  168.2619 O.2     1  UNL1       -0.1686
     36 O         140.4139  139.5683  166.9795 O.2     1  UNL1       -0.1686
     37 C         140.5235  140.2830  168.9737 C.3     1  UNL1        0.1698
     38 C         141.6183  140.2039  169.9961 C.3     1  UNL1        0.1017
     39 C         142.9023  139.7999  170.6580 C.3     1  UNL1        0.0169
     40 C         142.5433  139.2406  169.3132 C.3     1  UNL1        0.0169
     41 C         141.0735  141.1398  171.0340 C.1     1  UNL1        0.0728
     42 N         140.5287  142.0757  172.0720 N.1     1  UNL1       -0.1959
@<TRIPOS>BOND
     1     1     2    1
     2     2     3    2
     3     2     4   am
     4     4     5    1
     5     5     6    1
     6     6     7   ar
     7     7     8   ar
     8     8    34    1
     9    34    35    2
    10    34    36    2
    11    34    37    1
    12    37    38    1
    13    38    41    1
    14    41    42    3
    15    38    39    1
    16    39    40    1
    17     8     9   ar
    18     9    10   ar
    19    10    11   ar
    20    11    12    1
    21    12    13    1
    22    13    14    2
    23    13    15   am
    24    15    17    1
    25    17    18   ar
    26    18    19   ar
    27    19    20   ar
    28    20    23    1
    29    23    24    1
    30    23    26    1
    31    26    27    1
    32    26    28    1
    33    26    29    1
    34    23    30    1
    35    30    31    1
    36    30    32    1
    37    30    33    1
    38    20    21   ar
    39    21    22   ar
    40    12     4    1
    41    22    17   ar
    42    11     6   ar
    43    40    38    1
    44    15    16    1
    45    24    25    1
@<TRIPOS>MOLECULE
*****
 42 45 0 0 0
SMALL
GASTEIGER

@<TRIPOS>ATOM
      1 C         140.3294  145.0998  159.7747 C.3     1  UNL1        0.0949
      2 C         140.4034  143.6064  159.8935 C.2     1  UNL1        0.2269
      3 O         140.4511  142.7572  158.6580 O.2     1  UNL1       -0.2748
      4 N         140.4298  142.9622  161.2478 N.am    1  UNL1       -0.2655
      5 C         140.3884  143.6777  162.5655 C.3     1  UNL1        0.1206
      6 C         140.4351  142.6471  163.6544 C.ar    1  UNL1       -0.0030
      7 C         140.4227  142.7654  165.1496 C.ar    1  UNL1        0.0155
      8 C         140.4807  141.5313  166.0001 C.ar    1  UNL1        0.1054
      9 C         140.5509  140.1787  165.3554 C.ar    1  UNL1        0.0181
     10 C         140.5633  140.0603  163.8602 C.ar    1  UNL1       -0.0011
     11 C         140.5054  141.2945  163.0096 C.ar    1  UNL1        0.0022
     12 C         140.5021  141.4893  161.5223 C.3     1  UNL1        0.1750
     13 C         140.5608  140.4020  160.4907 C.2     1  UNL1        0.2485
     14 O         139.4106  139.4517  160.3362 O.2     1  UNL1       -0.2726
     15 N         141.7698  140.2650  159.6133 N.am    1  UNL1       -0.2823
     16 H         142.5247  140.8888  159.7146 H       1  UNL1        0.1549
     17 C         141.8285  139.1777  158.5816 C.ar    1  UNL1        0.0503
     18 C         141.0581  139.3156  157.3020 C.ar    1  UNL1        0.0144
     19 C         141.1168  138.2283  156.2703 C.ar    1  UNL1       -0.0002
     20 C         141.9459  137.0032  156.5184 C.ar    1  UNL1        0.0182
     21 C         142.7163  136.8653  157.7980 C.ar    1  UNL1       -0.0002
     22 C         142.6576  137.9526  158.8297 C.ar    1  UNL1        0.0144
     23 C         142.0047  135.9158  155.4867 C.3     1  UNL1        0.2827
     24 O         140.5284  135.6956  155.6349 O.3     1  UNL1       -0.3692
     25 H         140.2459  134.9852  155.0379 H       1  UNL1        0.2112
     26 C         142.0634  134.8285  154.4551 C.3     1  UNL1        0.4311
     27 F         142.1220  133.7411  153.4235 F       1  UNL1       -0.1669
     28 F         141.6490  133.8245  155.4897 F       1  UNL1       -0.1669
     29 F         142.3105  135.3386  153.7745 F       1  UNL1       -0.1669
     30 C         143.4810  136.1361  155.3385 C.3     1  UNL1        0.4311
     31 F         144.9573  136.3563  155.1903 F       1  UNL1       -0.1669
     32 F         144.0933  134.8995  155.9269 F       1  UNL1       -0.1669
     33 F         143.4332  136.9310  154.9508 F       1  UNL1       -0.1669
     34 S         140.4683  141.6496  167.4955 S.O2    1  UNL1        0.0097
     35 O         140.5487  140.1565  167.6143 O.2     1  UNL1       -0.1686
     36 O         140.3879  143.1427  167.3766 O.2     1  UNL1       -0.1686
     37 C         140.4560  141.7680  168.9907 C.3     1  UNL1        0.1698
     38 C         141.4859  142.6090  169.6850 C.3     1  UNL1        0.1017
     39 C         142.8069  143.0373  170.2519 C.3     1  UNL1        0.0169
     40 C         142.6820  141.7127  169.5592 C.3     1  UNL1        0.0169
     41 C         140.6473  143.7974  170.0519 C.1     1  UNL1        0.0728
     42 N         139.8086  144.9857  170.4188 N.1     1  UNL1       -0.1959
@<TRIPOS>BOND
     1     1     2    1
     2     2     3    2
     3     2     4   am
     4     4     5    1
     5     5     6    1
     6     6     7   ar
     7     7     8   ar
     8     8    34    1
     9    34    35    2
    10    34    36    2
    11    34    37    1
    12    37    38    1
    13    38    41    1
    14    41    42    3
    15    38    39    1
    16    39    40    1
    17     8     9   ar
    18     9    10   ar
    19    10    11   ar
    20    11    12    1
    21    12    13    1
    22    13    14    2
    23    13    15   am
    24    15    17    1
    25    17    18   ar
    26    18    19   ar
    27    19    20   ar
    28    20    23    1
    29    23    24    1
    30    23    26    1
    31    26    27    1
    32    26    28    1
    33    26    29    1
    34    23    30    1
    35    30    31    1
    36    30    32    1
    37    30    33    1
    38    20    21   ar
    39    21    22   ar
    40    12     4    1
    41    22    17   ar
    42    11     6   ar
    43    40    38    1
    44    15    16    1
    45    24    25    1
@<TRIPOS>MOLECULE
*****
 42 45 0 0 0
SMALL
GASTEIGER

@<TRIPOS>ATOM
      1 C         139.5710  146.6041  160.3992 C.3     1  UNL1        0.0949
      2 C         140.1663  145.4486  161.1478 C.2     1  UNL1        0.2269
      3 O         139.7572  145.1832  162.5663 O.2     1  UNL1       -0.2748
      4 N         141.1707  144.5584  160.4778 N.am    1  UNL1       -0.2655
      5 C         141.6741  144.6989  159.0718 C.3     1  UNL1        0.1206
      6 C         142.6625  143.5988  158.8212 C.ar    1  UNL1       -0.0030
      7 C         143.4786  143.2381  157.6155 C.ar    1  UNL1        0.0155
      8 C         144.4021  142.0571  157.6609 C.ar    1  UNL1        0.1054
      9 C         144.5096  141.2367  158.9120 C.ar    1  UNL1        0.0181
     10 C         143.6936  141.5973  160.1178 C.ar    1  UNL1       -0.0011
     11 C         142.7700  142.7784  160.0724 C.ar    1  UNL1        0.0022
     12 C         141.8480  143.3715  161.0962 C.3     1  UNL1        0.1750
     13 C         141.6399  142.8663  162.4931 C.2     1  UNL1        0.2485
     14 O         140.9727  141.5422  162.7203 O.2     1  UNL1       -0.2726
     15 N         142.0989  143.6853  163.6631 N.am    1  UNL1       -0.2823
     16 H         142.5368  144.5543  163.5140 H       1  UNL1        0.1549
     17 C         141.8908  143.1801  165.0600 C.ar    1  UNL1        0.0503
     18 C         143.0424  142.6021  165.8279 C.ar    1  UNL1        0.0144
     19 C         142.8343  142.0969  167.2249 C.ar    1  UNL1       -0.0002
     20 C         141.4745  142.1697  167.8539 C.ar    1  UNL1        0.0182
     21 C         140.3229  142.7477  167.0859 C.ar    1  UNL1       -0.0002
     22 C         140.5310  143.2529  165.6890 C.ar    1  UNL1        0.0144
     23 C         141.2663  141.6645  169.2508 C.3     1  UNL1        0.2827
     24 O         141.5349  140.2644  168.7844 O.3     1  UNL1       -0.3692
     25 H         141.4659  139.6546  169.5356 H       1  UNL1        0.2112
     26 C         141.0581  141.1593  170.6477 C.3     1  UNL1        0.4311
     27 F         140.8499  140.6540  172.0447 F       1  UNL1       -0.1669
     28 F         139.8103  140.4534  170.2064 F       1  UNL1       -0.1669
     29 F         141.7745  141.5366  171.0069 F       1  UNL1       -0.1669
     30 C         140.9977  143.0647  169.7172 C.3     1  UNL1        0.4311
     31 F         140.7291  144.4647  170.1836 F       1  UNL1       -0.1669
     32 F         139.5487  143.0465  170.1046 F       1  UNL1       -0.1669
     33 F         141.8143  143.3810  169.5850 F       1  UNL1       -0.1669
     34 S         145.2183  141.6963  156.4551 S.O2    1  UNL1        0.0097
     35 O         146.4343  142.2928  157.0996 O.2     1  UNL1       -0.1686
     36 O         144.0022  141.0999  155.8105 O.2     1  UNL1       -0.1686
     37 C         146.0343  141.3356  155.2493 C.3     1  UNL1        0.1698
     38 C         146.7905  142.3993  154.5099 C.3     1  UNL1        0.1017
     39 C         147.9356  143.1332  153.8773 C.3     1  UNL1        0.0169
     40 C         148.1729  141.8192  154.5608 C.3     1  UNL1        0.0169
     41 C         145.6708  143.3487  154.2022 C.1     1  UNL1        0.0728
     42 N         144.5510  144.2983  153.8945 N.1     1  UNL1       -0.1959
@<TRIPOS>BOND
     1     1     2    1
     2     2     3    2
     3     2     4   am
     4     4     5    1
     5     5     6    1
     6     6     7   ar
     7     7     8   ar
     8     8    34    1
     9    34    35    2
    10    34    36    2
    11    34    37    1
    12    37    38    1
    13    38    41    1
    14    41    42    3
    15    38    39    1
    16    39    40    1
    17     8     9   ar
    18     9    10   ar
    19    10    11   ar
    20    11    12    1
    21    12    13    1
    22    13    14    2
    23    13    15   am
    24    15    17    1
    25    17    18   ar
    26    18    19   ar
    27    19    20   ar
    28    20    23    1
    29    23    24    1
    30    23    26    1
    31    26    27    1
    32    26    28    1
    33    26    29    1
    34    23    30    1
    35    30    31    1
    36    30    32    1
    37    30    33    1
    38    20    21   ar
    39    21    22   ar
    40    12     4    1
    41    22    17   ar
    42    11     6   ar
    43    40    38    1
    44    15    16    1
    45    24    25    1
@<TRIPOS>MOLECULE
*****
 42 45 0 0 0
SMALL
GASTEIGER

@<TRIPOS>ATOM
      1 C         139.0572  139.2135  155.0694 C.3     1  UNL1        0.0949
      2 C         140.1191  139.0034  156.1077 C.2     1  UNL1        0.2269
      3 O         140.4638  140.1080  157.0621 O.2     1  UNL1       -0.2748
      4 N         140.8364  137.6886  156.1916 N.am    1  UNL1       -0.2655
      5 C         140.6009  136.4980  155.3102 C.3     1  UNL1        0.1206
      6 C         141.5340  135.4072  155.7455 C.ar    1  UNL1       -0.0030
      7 C         141.7490  134.0104  155.2430 C.ar    1  UNL1        0.0155
      8 C         142.7762  133.1300  155.8909 C.ar    1  UNL1        0.1054
      9 C         143.5883  133.6465  157.0414 C.ar    1  UNL1        0.0181
     10 C         143.3733  135.0433  157.5440 C.ar    1  UNL1       -0.0011
     11 C         142.3461  135.9236  156.8961 C.ar    1  UNL1        0.0022
     12 C         141.9149  137.3336  157.1718 C.3     1  UNL1        0.1750
     13 C         142.4657  138.2311  158.2400 C.2     1  UNL1        0.2485
     14 O         143.7238  139.0089  157.9911 O.2     1  UNL1       -0.2726
     15 N         141.7583  138.3507  159.5574 N.am    1  UNL1       -0.2823
     16 H         140.9325  137.8402  159.7209 H       1  UNL1        0.1549
     17 C         142.3090  139.2481  160.6257 C.ar    1  UNL1        0.0503
     18 C         141.7491  140.6276  160.8086 C.ar    1  UNL1        0.0144
     19 C         142.2999  141.5251  161.8769 C.ar    1  UNL1       -0.0002
     20 C         143.4105  141.0430  162.7623 C.ar    1  UNL1        0.0182
     21 C         143.9704  139.6635  162.5794 C.ar    1  UNL1       -0.0002
     22 C         143.4197  138.7660  161.5111 C.ar    1  UNL1        0.0144
     23 C         143.9614  141.9404  163.8306 C.3     1  UNL1        0.2827
     24 O         143.4868  140.9808  164.8813 O.3     1  UNL1       -0.3692
     25 H         143.7203  141.3210  165.7591 H       1  UNL1        0.2112
     26 C         144.5122  142.8377  164.8990 C.3     1  UNL1        0.4311
     27 F         145.0630  143.7350  165.9674 F       1  UNL1       -0.1669
     28 F         143.1171  143.1767  165.3335 F       1  UNL1       -0.1669
     29 F         145.3695  142.7036  164.7212 F       1  UNL1       -0.1669
     30 C         144.4360  142.9000  162.7799 C.3     1  UNL1        0.4311
     31 F         144.9106  143.8596  161.7293 F       1  UNL1       -0.1669
     32 F         145.5589  142.1711  162.1033 F       1  UNL1       -0.1669
     33 F         143.8613  143.5496  162.9595 F       1  UNL1       -0.1669
     34 S         142.9913  131.7331  155.3883 S.O2    1  UNL1        0.0097
     35 O         142.9200  132.2306  153.9750 O.2     1  UNL1       -0.1686
     36 O         143.0626  131.2357  156.8016 O.2     1  UNL1       -0.1686
     37 C         143.2064  130.3363  154.8858 C.3     1  UNL1        0.1698
     38 C         142.2579  129.2430  155.2800 C.3     1  UNL1        0.1017
     39 C         141.7636  127.9200  155.7851 C.3     1  UNL1        0.0169
     40 C         143.2362  128.2016  155.7364 C.3     1  UNL1        0.0169
     41 C         140.9504  129.9050  154.9604 C.1     1  UNL1        0.0728
     42 N         139.6427  130.5668  154.6409 N.1     1  UNL1       -0.1959
@<TRIPOS>BOND
     1     1     2    1
     2     2     3    2
     3     2     4   am
     4     4     5    1
     5     5     6    1
     6     6     7   ar
     7     7     8   ar
     8     8    34    1
     9    34    35    2
    10    34    36    2
    11    34    37    1
    12    37    38    1
    13    38    41    1
    14    41    42    3
    15    38    39    1
    16    39    40    1
    17     8     9   ar
    18     9    10   ar
    19    10    11   ar
    20    11    12    1
    21    12    13    1
    22    13    14    2
    23    13    15   am
    24    15    17    1
    25    17    18   ar
    26    18    19   ar
    27    19    20   ar
    28    20    23    1
    29    23    24    1
    30    23    26    1
    31    26    27    1
    32    26    28    1
    33    26    29    1
    34    23    30    1
    35    30    31    1
    36    30    32    1
    37    30    33    1
    38    20    21   ar
    39    21    22   ar
    40    12     4    1
    41    22    17   ar
    42    11     6   ar
    43    40    38    1
    44    15    16    1
    45    24    25    1
@<TRIPOS>MOLECULE
*****
 42 45 0 0 0
SMALL
GASTEIGER

@<TRIPOS>ATOM
      1 C         142.9702  138.5974  159.2401 C.3     1  UNL1        0.0949
      2 C         142.6774  139.7135  160.1984 C.2     1  UNL1        0.2269
      3 O         142.9931  139.5527  161.6560 O.2     1  UNL1       -0.2748
      4 N         142.0688  140.9904  159.6993 N.am    1  UNL1       -0.2655
      5 C         141.7004  141.2948  158.2774 C.3     1  UNL1        0.1206
      6 C         141.1257  142.6796  158.2337 C.ar    1  UNL1       -0.0030
      7 C         140.5921  143.5097  157.1040 C.ar    1  UNL1        0.0155
      8 C         140.0717  144.8912  157.3692 C.ar    1  UNL1        0.1054
      9 C         140.0849  145.4428  158.7641 C.ar    1  UNL1        0.0181
     10 C         140.6185  144.6128  159.8938 C.ar    1  UNL1       -0.0011
     11 C         141.1389  143.2312  159.6286 C.ar    1  UNL1        0.0022
     12 C         141.7218  142.1872  160.5343 C.3     1  UNL1        0.1750
     13 C         141.9224  142.3172  162.0152 C.2     1  UNL1        0.2485
     14 O         143.0008  143.2117  162.5503 O.2     1  UNL1       -0.2726
     15 N         141.0443  141.5525  162.9610 N.am    1  UNL1       -0.2823
     16 H         140.3364  140.9653  162.6098 H       1  UNL1        0.1549
     17 C         141.2449  141.6825  164.4418 C.ar    1  UNL1        0.0503
     18 C         142.2815  140.8483  165.1343 C.ar    1  UNL1        0.0144
     19 C         142.4821  140.9782  166.6152 C.ar    1  UNL1       -0.0002
     20 C         141.6461  141.9425  167.4034 C.ar    1  UNL1        0.0182
     21 C         140.6095  142.7767  166.7109 C.ar    1  UNL1       -0.0002
     22 C         140.4089  142.6467  165.2300 C.ar    1  UNL1        0.0144
     23 C         141.8466  142.0725  168.8843 C.3     1  UNL1        0.2827
     24 O         143.1947  142.6862  168.6477 O.3     1  UNL1       -0.3692
     25 H         143.6076  142.8978  169.4996 H       1  UNL1        0.2112
     26 C         142.0472  142.2026  170.3651 C.3     1  UNL1        0.4311
     27 F         142.2478  142.3327  171.8459 F       1  UNL1       -0.1669
     28 F         142.0598  143.6967  170.2321 F       1  UNL1       -0.1669
     29 F         142.0542  141.3363  170.5496 F       1  UNL1       -0.1669
     30 C         140.4985  141.4588  169.1208 C.3     1  UNL1        0.4311
     31 F         139.1504  140.8452  169.3574 F       1  UNL1       -0.1669
     32 F         139.6868  142.5786  169.7016 F       1  UNL1       -0.1669
     33 F         140.6947  140.6486  168.8216 F       1  UNL1       -0.1669
     34 S         139.5380  145.7214  156.2395 S.O2    1  UNL1        0.0097
     35 O         139.8835  146.9707  156.9942 O.2     1  UNL1       -0.1686
     36 O         139.1926  144.4720  155.4847 O.2     1  UNL1       -0.1686
     37 C         139.0044  146.5514  155.1098 C.3     1  UNL1        0.1698
     38 C         139.9108  147.5000  154.3827 C.3     1  UNL1        0.1017
     39 C         140.4570  148.7826  153.8290 C.3     1  UNL1        0.0169
     40 C         139.1883  148.7912  154.6292 C.3     1  UNL1        0.0169
     41 C         140.9481  146.5382  153.8838 C.1     1  UNL1        0.0728
     42 N         141.9854  145.5763  153.3849 N.1     1  UNL1       -0.1959
@<TRIPOS>BOND
     1     1     2    1
     2     2     3    2
     3     2     4   am
     4     4     5    1
     5     5     6    1
     6     6     7   ar
     7     7     8   ar
     8     8    34    1
     9    34    35    2
    10    34    36    2
    11    34    37    1
    12    37    38    1
    13    38    41    1
    14    41    42    3
    15    38    39    1
    16    39    40    1
    17     8     9   ar
    18     9    10   ar
    19    10    11   ar
    20    11    12    1
    21    12    13    1
    22    13    14    2
    23    13    15   am
    24    15    17    1
    25    17    18   ar
    26    18    19   ar
    27    19    20   ar
    28    20    23    1
    29    23    24    1
    30    23    26    1
    31    26    27    1
    32    26    28    1
    33    26    29    1
    34    23    30    1
    35    30    31    1
    36    30    32    1
    37    30    33    1
    38    20    21   ar
    39    21    22   ar
    40    12     4    1
    41    22    17   ar
    42    11     6   ar
    43    40    38    1
    44    15    16    1
    45    24    25    1
