@<TRIPOS>MOLECULE
*****
 34 37 0 0 0
SMALL
GASTEIGER

@<TRIPOS>ATOM
      1 N         138.3473  140.6279  162.6888 N.3     1  UNL1       -0.2680
      2 C         137.7777  142.0152  162.7161 C.3     1  UNL1        0.0897
      3 C         138.2406  143.0357  161.7190 C.3     1  UNL1        0.0897
      4 N         139.2732  142.6688  160.6946 N.3     1  UNL1       -0.2700
      5 C         139.8428  141.2815  160.6673 C.3     1  UNL1        0.0897
      6 C         139.3799  140.2609  161.6644 C.3     1  UNL1        0.0897
      7 C         137.8844  139.6073  163.6859 C.3     1  UNL1        0.1067
      8 C         138.8662  138.9876  164.6357 C.3     1  UNL1        0.1530
      9 C         139.3211  139.7480  165.8461 C.ar    1  UNL1        0.0018
     10 C         140.3850  140.7973  165.7166 C.ar    1  UNL1       -0.0020
     11 C         140.8399  141.5576  166.9269 C.ar    1  UNL1        0.0060
     12 C         140.2308  141.2686  168.2669 C.ar    1  UNL1        0.0748
     13 C         139.1669  140.2192  168.3964 C.ar    1  UNL1        0.0233
     14 C         138.7120  139.4589  167.1861 C.ar    1  UNL1       -0.0238
     15 C         137.6480  138.4095  167.3156 C.3     1  UNL1        0.0306
     16 C         138.7534  140.1536  169.8368 C.3     1  UNL1        0.2352
     17 O         139.5618  141.1625  170.5975 O.3     1  UNL1       -0.4404
     18 C         140.4750  141.8516  169.6272 C.2     1  UNL1        0.3413
     19 O         141.4593  142.9336  169.9590 O.2     1  UNL1       -0.2449
     20 O         139.3931  137.6076  164.3751 O.3     1  UNL1       -0.3504
     21 C         141.9719  137.5920  164.6907 C.3     1  UNL1        0.0347
     22 C         140.7701  137.4251  163.8088 C.3     1  UNL1        0.1426
     23 C         139.7360  143.6894  159.6975 C.3     1  UNL1        0.0769
     24 C         140.5791  144.8466  160.1449 C.3     1  UNL1        0.0438
     25 C         141.4922  144.6971  161.3255 C.ar    1  UNL1       -0.0177
     26 C         141.1494  145.3590  162.6272 C.ar    1  UNL1       -0.0033
     27 C         142.0625  145.2096  163.8079 C.ar    1  UNL1        0.0130
     28 C         143.3183  144.3983  163.6868 C.ar    1  UNL1        0.1023
     29 C         143.6611  143.7364  162.3851 C.ar    1  UNL1        0.1479
     30 C         142.7480  143.8858  161.2044 C.ar    1  UNL1        0.0334
     31 C         144.2315  144.2488  164.8675 C.1     1  UNL1        0.1035
     32 N         145.1447  144.0992  166.0480 N.1     1  UNL1       -0.1907
     33 O         144.9169  142.9251  162.2641 O.3     1  UNL1       -0.4708
     34 C         144.8375  141.4307  162.1617 C.3     1  UNL1        0.2525
@<TRIPOS>BOND
     1    21    22    1
     2    22    20    1
     3    20     8    1
     4     8     7    1
     5     7     1    1
     6     1     2    1
     7     2     3    1
     8     3     4    1
     9     4    23    1
    10    23    24    1
    11    24    25    1
    12    25    26   ar
    13    26    27   ar
    14    27    28   ar
    15    28    31    1
    16    31    32    3
    17    28    29   ar
    18    29    33    1
    19    33    34    1
    20    29    30   ar
    21     4     5    1
    22     5     6    1
    23     8     9    1
    24     9    10   ar
    25    10    11   ar
    26    11    12   ar
    27    12    13   ar
    28    13    14   ar
    29    14    15    1
    30    13    16    1
    31    16    17    1
    32    17    18    1
    33    18    19    2
    34     6     1    1
    35    14     9   ar
    36    30    25   ar
    37    18    12    1
@<TRIPOS>MOLECULE
*****
 34 37 0 0 0
SMALL
GASTEIGER

@<TRIPOS>ATOM
      1 N         138.2261  141.4357  164.3225 N.3     1  UNL1       -0.2680
      2 C         138.4915  142.6709  165.1310 C.3     1  UNL1        0.0897
      3 C         138.6272  143.9994  164.4481 C.3     1  UNL1        0.0897
      4 N         138.4975  144.0928  162.9566 N.3     1  UNL1       -0.2700
      5 C         138.2320  142.8576  162.1481 C.3     1  UNL1        0.0897
      6 C         138.0964  141.5290  162.8310 C.3     1  UNL1        0.0897
      7 C         138.0904  140.1070  165.0054 C.3     1  UNL1        0.1067
      8 C         139.2511  139.5297  165.7600 C.3     1  UNL1        0.1530
      9 C         139.6789  140.1417  167.0611 C.ar    1  UNL1        0.0018
     10 C         138.8689  139.9086  168.3018 C.ar    1  UNL1       -0.0020
     11 C         139.2967  140.5205  169.6027 C.ar    1  UNL1        0.0060
     12 C         140.5345  141.3656  169.6629 C.ar    1  UNL1        0.0748
     13 C         141.3446  141.5987  168.4222 C.ar    1  UNL1        0.0233
     14 C         140.9168  140.9868  167.1212 C.ar    1  UNL1       -0.0238
     15 C         141.7268  141.2198  165.8804 C.3     1  UNL1        0.0306
     16 C         142.5095  142.4708  168.7861 C.3     1  UNL1        0.2352
     17 O         142.4194  142.7766  170.2518 O.3     1  UNL1       -0.4404
     18 C         141.1988  142.0936  170.7937 C.2     1  UNL1        0.3413
     19 O         140.7256  142.1319  172.2166 O.2     1  UNL1       -0.2449
     20 O         139.9839  138.3404  165.2138 O.3     1  UNL1       -0.3504
     21 C         141.2346  137.1809  163.2538 C.3     1  UNL1        0.0347
     22 C         140.6161  138.4080  163.8552 C.3     1  UNL1        0.1426
     23 C         138.6332  145.4214  162.2737 C.3     1  UNL1        0.0769
     24 C         139.9863  145.9144  161.8542 C.3     1  UNL1        0.0438
     25 C         141.2048  145.0829  162.1256 C.ar    1  UNL1       -0.0177
     26 C         141.9831  145.2839  163.3921 C.ar    1  UNL1       -0.0033
     27 C         143.2016  144.4524  163.6636 C.ar    1  UNL1        0.0130
     28 C         143.6419  143.4199  162.6686 C.ar    1  UNL1        0.1023
     29 C         142.8637  143.2189  161.4021 C.ar    1  UNL1        0.1479
     30 C         141.6452  144.0504  161.1306 C.ar    1  UNL1        0.0334
     31 C         144.8605  142.5883  162.9400 C.1     1  UNL1        0.1035
     32 N         146.0790  141.7568  163.2115 N.1     1  UNL1       -0.1907
     33 O         143.3040  142.1863  160.4072 O.3     1  UNL1       -0.4708
     34 C         144.3923  142.5065  159.4258 C.3     1  UNL1        0.2525
@<TRIPOS>BOND
     1    21    22    1
     2    22    20    1
     3    20     8    1
     4     8     7    1
     5     7     1    1
     6     1     2    1
     7     2     3    1
     8     3     4    1
     9     4    23    1
    10    23    24    1
    11    24    25    1
    12    25    26   ar
    13    26    27   ar
    14    27    28   ar
    15    28    31    1
    16    31    32    3
    17    28    29   ar
    18    29    33    1
    19    33    34    1
    20    29    30   ar
    21     4     5    1
    22     5     6    1
    23     8     9    1
    24     9    10   ar
    25    10    11   ar
    26    11    12   ar
    27    12    13   ar
    28    13    14   ar
    29    14    15    1
    30    13    16    1
    31    16    17    1
    32    17    18    1
    33    18    19    2
    34     6     1    1
    35    14     9   ar
    36    30    25   ar
    37    18    12    1
@<TRIPOS>MOLECULE
*****
 34 37 0 0 0
SMALL
GASTEIGER

@<TRIPOS>ATOM
      1 N         139.1496  139.2720  162.3195 N.3     1  UNL1       -0.2680
      2 C         139.8194  138.1137  162.9976 C.3     1  UNL1        0.0897
      3 C         141.0904  137.5488  162.4362 C.3     1  UNL1        0.0897
      4 N         141.6917  138.1421  161.1966 N.3     1  UNL1       -0.2700
      5 C         141.0220  139.3003  160.5185 C.3     1  UNL1        0.0897
      6 C         139.7509  139.8653  161.0799 C.3     1  UNL1        0.0897
      7 C         137.8786  139.8370  162.8809 C.3     1  UNL1        0.1067
      8 C         137.9328  140.8852  163.9524 C.3     1  UNL1        0.1530
      9 C         138.6853  140.6209  165.2229 C.ar    1  UNL1        0.0018
     10 C         138.0703  139.7726  166.2962 C.ar    1  UNL1       -0.0020
     11 C         138.8227  139.5082  167.5666 C.ar    1  UNL1        0.0060
     12 C         140.1903  140.0922  167.7636 C.ar    1  UNL1        0.0748
     13 C         140.8053  140.9406  166.6903 C.ar    1  UNL1        0.0233
     14 C         140.0529  141.2049  165.4199 C.ar    1  UNL1       -0.0238
     15 C         140.6679  142.0532  164.3465 C.3     1  UNL1        0.0306
     16 C         142.1595  141.3782  167.1643 C.3     1  UNL1        0.2352
     17 O         142.3813  140.8004  168.5307 O.3     1  UNL1       -0.4404
     18 C         141.1643  140.0056  168.9011 C.2     1  UNL1        0.3413
     19 O         140.9576  139.2558  170.1837 O.2     1  UNL1       -0.2449
     20 O         137.2345  142.1978  163.7536 O.3     1  UNL1       -0.3504
     21 C         138.2131  144.4915  163.0248 C.3     1  UNL1        0.0347
     22 C         137.6875  143.1319  162.6710 C.3     1  UNL1        0.1426
     23 C         142.9628  137.5771  160.6352 C.3     1  UNL1        0.0769
     24 C         144.2879  138.0485  161.1567 C.3     1  UNL1        0.0438
     25 C         144.3544  139.2340  162.0733 C.ar    1  UNL1       -0.0177
     26 C         144.4839  139.0308  163.5539 C.ar    1  UNL1       -0.0033
     27 C         144.5504  140.2161  164.4706 C.ar    1  UNL1        0.0130
     28 C         144.4874  141.6047  163.9068 C.ar    1  UNL1        0.1023
     29 C         144.3579  141.8079  162.4263 C.ar    1  UNL1        0.1479
     30 C         144.2914  140.6225  161.5095 C.ar    1  UNL1        0.0334
     31 C         144.5539  142.7902  164.8235 C.1     1  UNL1        0.1035
     32 N         144.6204  143.9758  165.7401 N.1     1  UNL1       -0.1907
     33 O         144.2949  143.1965  161.8625 O.3     1  UNL1       -0.4708
     34 C         143.0411  143.6789  161.1952 C.3     1  UNL1        0.2525
@<TRIPOS>BOND
     1    21    22    1
     2    22    20    1
     3    20     8    1
     4     8     7    1
     5     7     1    1
     6     1     2    1
     7     2     3    1
     8     3     4    1
     9     4    23    1
    10    23    24    1
    11    24    25    1
    12    25    26   ar
    13    26    27   ar
    14    27    28   ar
    15    28    31    1
    16    31    32    3
    17    28    29   ar
    18    29    33    1
    19    33    34    1
    20    29    30   ar
    21     4     5    1
    22     5     6    1
    23     8     9    1
    24     9    10   ar
    25    10    11   ar
    26    11    12   ar
    27    12    13   ar
    28    13    14   ar
    29    14    15    1
    30    13    16    1
    31    16    17    1
    32    17    18    1
    33    18    19    2
    34     6     1    1
    35    14     9   ar
    36    30    25   ar
    37    18    12    1
@<TRIPOS>MOLECULE
*****
 34 37 0 0 0
SMALL
GASTEIGER

@<TRIPOS>ATOM
      1 N         143.4328  139.9231  163.4398 N.3     1  UNL1       -0.2680
      2 C         142.3776  139.6568  162.4075 C.3     1  UNL1        0.0897
      3 C         142.2492  140.5592  161.2163 C.3     1  UNL1        0.0897
      4 N         143.1759  141.7279  161.0573 N.3     1  UNL1       -0.2700
      5 C         144.2311  141.9942  162.0896 C.3     1  UNL1        0.0897
      6 C         144.3596  141.0918  163.2809 C.3     1  UNL1        0.0897
      7 C         143.5612  139.0207  164.6311 C.3     1  UNL1        0.1067
      8 C         142.3718  138.7619  165.5076 C.3     1  UNL1        0.1530
      9 C         142.1527  139.5908  166.7385 C.ar    1  UNL1        0.0018
     10 C         142.7182  139.1441  168.0540 C.ar    1  UNL1       -0.0020
     11 C         142.4991  139.9729  169.2848 C.ar    1  UNL1        0.0060
     12 C         141.7144  141.2485  169.2001 C.ar    1  UNL1        0.0748
     13 C         141.1488  141.6952  167.8846 C.ar    1  UNL1        0.0233
     14 C         141.3679  140.8664  166.6538 C.ar    1  UNL1       -0.0238
     15 C         140.8024  141.3131  165.3382 C.3     1  UNL1        0.0306
     16 C         140.4229  142.9888  168.1074 C.3     1  UNL1        0.2352
     17 O         140.5398  143.3416  169.5606 O.3     1  UNL1       -0.4404
     18 C         141.3380  142.2660  170.2360 C.2     1  UNL1        0.3413
     19 O         141.6967  142.2166  171.6916 O.2     1  UNL1       -0.2449
     20 O         141.4015  137.6742  165.1533 O.3     1  UNL1       -0.3504
     21 C         138.8618  138.0904  165.5091 C.3     1  UNL1        0.0347
     22 C         140.0523  138.0240  164.5990 C.3     1  UNL1        0.1426
     23 C         143.0475  142.6303  159.8660 C.3     1  UNL1        0.0769
     24 C         142.1879  143.8572  159.9436 C.3     1  UNL1        0.0438
     25 C         141.3911  144.1376  161.1831 C.ar    1  UNL1       -0.0177
     26 C         142.0164  144.8852  162.3234 C.ar    1  UNL1       -0.0033
     27 C         141.2197  145.1656  163.5630 C.ar    1  UNL1        0.0130
     28 C         139.7977  144.6984  163.6623 C.ar    1  UNL1        0.1023
     29 C         139.1725  143.9508  162.5220 C.ar    1  UNL1        0.1479
     30 C         139.9692  143.6704  161.2824 C.ar    1  UNL1        0.0334
     31 C         139.0009  144.9788  164.9019 C.1     1  UNL1        0.1035
     32 N         138.2040  145.2591  166.1414 N.1     1  UNL1       -0.1907
     33 O         137.7506  143.4837  162.6213 O.3     1  UNL1       -0.4708
     34 C         137.4460  142.1167  163.1585 C.3     1  UNL1        0.2525
@<TRIPOS>BOND
     1    21    22    1
     2    22    20    1
     3    20     8    1
     4     8     7    1
     5     7     1    1
     6     1     2    1
     7     2     3    1
     8     3     4    1
     9     4    23    1
    10    23    24    1
    11    24    25    1
    12    25    26   ar
    13    26    27   ar
    14    27    28   ar
    15    28    31    1
    16    31    32    3
    17    28    29   ar
    18    29    33    1
    19    33    34    1
    20    29    30   ar
    21     4     5    1
    22     5     6    1
    23     8     9    1
    24     9    10   ar
    25    10    11   ar
    26    11    12   ar
    27    12    13   ar
    28    13    14   ar
    29    14    15    1
    30    13    16    1
    31    16    17    1
    32    17    18    1
    33    18    19    2
    34     6     1    1
    35    14     9   ar
    36    30    25   ar
    37    18    12    1
@<TRIPOS>MOLECULE
*****
 34 37 0 0 0
SMALL
GASTEIGER

@<TRIPOS>ATOM
      1 N         140.7239  139.7207  166.4878 N.3     1  UNL1       -0.2680
      2 C         141.6041  139.1627  165.4089 C.3     1  UNL1        0.0897
      3 C         140.9944  138.4597  164.2325 C.3     1  UNL1        0.0897
      4 N         139.5046  138.3146  164.1350 N.3     1  UNL1       -0.2700
      5 C         138.6245  138.8727  165.2138 C.3     1  UNL1        0.0897
      6 C         139.2341  139.5757  166.3903 C.3     1  UNL1        0.0897
      7 C         141.3336  140.4238  167.6642 C.3     1  UNL1        0.1067
      8 C         141.6320  141.8919  167.5885 C.3     1  UNL1        0.1530
      9 C         141.2112  142.6816  166.3845 C.ar    1  UNL1        0.0018
     10 C         139.8173  143.2282  166.2957 C.ar    1  UNL1       -0.0020
     11 C         139.3965  144.0179  165.0919 C.ar    1  UNL1        0.0060
     12 C         140.3699  144.2610  163.9767 C.ar    1  UNL1        0.0748
     13 C         141.7639  143.7145  164.0655 C.ar    1  UNL1        0.0233
     14 C         142.1847  142.9248  165.2694 C.ar    1  UNL1       -0.0238
     15 C         143.5787  142.3781  165.3582 C.3     1  UNL1        0.0306
     16 C         142.4982  144.1127  162.8196 C.3     1  UNL1        0.2352
     17 O         141.5579  144.9054  161.9608 O.3     1  UNL1       -0.4404
     18 C         140.2425  144.9971  162.6760 C.2     1  UNL1        0.3413
     19 O         139.0153  145.7012  162.1778 O.2     1  UNL1       -0.2449
     20 O         142.3511  142.5702  168.7166 O.3     1  UNL1       -0.3504
     21 C         140.4810  143.9487  169.8796 C.3     1  UNL1        0.0347
     22 C         141.6033  142.9566  169.9582 C.3     1  UNL1        0.1426
     23 C         138.8950  137.6115  162.9585 C.3     1  UNL1        0.0769
     24 C         137.9194  138.3329  162.0765 C.3     1  UNL1        0.0438
     25 C         138.3128  139.6237  161.4216 C.ar    1  UNL1       -0.0177
     26 C         137.8026  140.9259  161.9639 C.ar    1  UNL1       -0.0033
     27 C         138.1959  142.2167  161.3090 C.ar    1  UNL1        0.0130
     28 C         139.0996  142.2055  160.1119 C.ar    1  UNL1        0.1023
     29 C         139.6099  140.9034  159.5696 C.ar    1  UNL1        0.1479
     30 C         139.2165  139.6125  160.2244 C.ar    1  UNL1        0.0334
     31 C         139.4931  143.4964  159.4569 C.1     1  UNL1        0.1035
     32 N         139.8866  144.7871  158.8018 N.1     1  UNL1       -0.1907
     33 O         140.5136  140.8921  158.3724 O.3     1  UNL1       -0.4708
     34 C         142.0017  140.8499  158.5563 C.3     1  UNL1        0.2525
@<TRIPOS>BOND
     1    21    22    1
     2    22    20    1
     3    20     8    1
     4     8     7    1
     5     7     1    1
     6     1     2    1
     7     2     3    1
     8     3     4    1
     9     4    23    1
    10    23    24    1
    11    24    25    1
    12    25    26   ar
    13    26    27   ar
    14    27    28   ar
    15    28    31    1
    16    31    32    3
    17    28    29   ar
    18    29    33    1
    19    33    34    1
    20    29    30   ar
    21     4     5    1
    22     5     6    1
    23     8     9    1
    24     9    10   ar
    25    10    11   ar
    26    11    12   ar
    27    12    13   ar
    28    13    14   ar
    29    14    15    1
    30    13    16    1
    31    16    17    1
    32    17    18    1
    33    18    19    2
    34     6     1    1
    35    14     9   ar
    36    30    25   ar
    37    18    12    1
@<TRIPOS>MOLECULE
*****
 34 37 0 0 0
SMALL
GASTEIGER

@<TRIPOS>ATOM
      1 N         142.6016  140.2873  166.3288 N.3     1  UNL1       -0.2680
      2 C         142.3238  138.9042  165.8191 C.3     1  UNL1        0.0897
      3 C         142.8765  138.4679  164.4947 C.3     1  UNL1        0.0897
      4 N         143.7071  139.4146  163.6800 N.3     1  UNL1       -0.2700
      5 C         143.9849  140.7978  164.1896 C.3     1  UNL1        0.0897
      6 C         143.4322  141.2342  165.5140 C.3     1  UNL1        0.0897
      7 C         142.0489  140.7237  167.6532 C.3     1  UNL1        0.1067
      8 C         140.6369  141.2205  167.7496 C.3     1  UNL1        0.1530
      9 C         139.9861  141.8661  166.5622 C.ar    1  UNL1        0.0018
     10 C         140.2812  143.2992  166.2323 C.ar    1  UNL1       -0.0020
     11 C         139.6305  143.9448  165.0449 C.ar    1  UNL1        0.0060
     12 C         138.6848  143.1572  164.1875 C.ar    1  UNL1        0.0748
     13 C         138.3897  141.7240  164.5174 C.ar    1  UNL1        0.0233
     14 C         139.0404  141.0784  165.7047 C.ar    1  UNL1       -0.0238
     15 C         138.7454  139.6452  166.0347 C.3     1  UNL1        0.0306
     16 C         137.4220  141.2031  163.4965 C.3     1  UNL1        0.2352
     17 O         137.1189  142.3144  162.5357 O.3     1  UNL1       -0.4404
     18 C         137.8994  143.5221  162.9627 C.2     1  UNL1        0.3413
     19 O         137.8952  144.8598  162.2841 O.2     1  UNL1       -0.2449
     20 O         139.8755  141.0717  169.0334 O.3     1  UNL1       -0.3504
     21 C         140.3019  143.4788  169.9132 C.3     1  UNL1        0.0347
     22 C         140.1367  142.0108  170.1735 C.3     1  UNL1        0.1426
     23 C         144.2598  138.9783  162.3556 C.3     1  UNL1        0.0769
     24 C         143.5686  137.9018  161.5723 C.3     1  UNL1        0.0438
     25 C         142.4995  138.2623  160.5839 C.ar    1  UNL1       -0.0177
     26 C         142.8475  138.4457  159.1364 C.ar    1  UNL1       -0.0033
     27 C         141.7784  138.8062  158.1479 C.ar    1  UNL1        0.0130
     28 C         140.3614  138.9833  158.6069 C.ar    1  UNL1        0.1023
     29 C         140.0135  138.7999  160.0544 C.ar    1  UNL1        0.1479
     30 C         141.0825  138.4394  161.0429 C.ar    1  UNL1        0.0334
     31 C         139.2922  139.3439  157.6184 C.1     1  UNL1        0.1035
     32 N         138.2231  139.7045  156.6301 N.1     1  UNL1       -0.1907
     33 O         138.5965  138.9770  160.5134 O.3     1  UNL1       -0.4708
     34 C         138.0574  138.1293  161.6273 C.3     1  UNL1        0.2525
@<TRIPOS>BOND
     1    21    22    1
     2    22    20    1
     3    20     8    1
     4     8     7    1
     5     7     1    1
     6     1     2    1
     7     2     3    1
     8     3     4    1
     9     4    23    1
    10    23    24    1
    11    24    25    1
    12    25    26   ar
    13    26    27   ar
    14    27    28   ar
    15    28    31    1
    16    31    32    3
    17    28    29   ar
    18    29    33    1
    19    33    34    1
    20    29    30   ar
    21     4     5    1
    22     5     6    1
    23     8     9    1
    24     9    10   ar
    25    10    11   ar
    26    11    12   ar
    27    12    13   ar
    28    13    14   ar
    29    14    15    1
    30    13    16    1
    31    16    17    1
    32    17    18    1
    33    18    19    2
    34     6     1    1
    35    14     9   ar
    36    30    25   ar
    37    18    12    1
@<TRIPOS>MOLECULE
*****
 34 37 0 0 0
SMALL
GASTEIGER

@<TRIPOS>ATOM
      1 N         139.0962  142.5032  161.7501 N.3     1  UNL1       -0.2680
      2 C         139.6124  141.0952  161.7838 C.3     1  UNL1        0.0897
      3 C         139.2781  140.2014  162.9409 C.3     1  UNL1        0.0897
      4 N         138.4275  140.7154  164.0645 N.3     1  UNL1       -0.2700
      5 C         137.9113  142.1234  164.0309 C.3     1  UNL1        0.0897
      6 C         138.2456  143.0173  162.8737 C.3     1  UNL1        0.0897
      7 C         139.4305  143.3972  160.5930 C.3     1  UNL1        0.1067
      8 C         140.6234  144.3035  160.6656 C.3     1  UNL1        0.1530
      9 C         141.6288  144.1334  161.7659 C.ar    1  UNL1        0.0018
     10 C         141.5303  144.9690  163.0076 C.ar    1  UNL1       -0.0020
     11 C         142.5355  144.7989  164.1078 C.ar    1  UNL1        0.0060
     12 C         143.6393  143.7930  163.9663 C.ar    1  UNL1        0.0748
     13 C         143.7378  142.9573  162.7246 C.ar    1  UNL1        0.0233
     14 C         142.7325  143.1275  161.6244 C.ar    1  UNL1       -0.0238
     15 C         142.8309  142.2918  160.3826 C.3     1  UNL1        0.0306
     16 C         144.9262  142.0533  162.8673 C.3     1  UNL1        0.2352
     17 O         145.5622  142.3303  164.1972 O.3     1  UNL1       -0.4404
     18 C         144.7669  143.4055  164.8765 C.2     1  UNL1        0.3413
     19 O         145.0495  143.9905  166.2285 O.2     1  UNL1       -0.2449
     20 O         140.8112  145.3801  159.6381 O.3     1  UNL1       -0.3504
     21 C         140.2435  146.2460  157.2552 C.3     1  UNL1        0.0347
     22 C         140.4926  145.1062  158.1982 C.3     1  UNL1        0.1426
     23 C         138.0932  139.8214  165.2217 C.3     1  UNL1        0.0769
     24 C         139.1850  139.0872  165.9422 C.3     1  UNL1        0.0438
     25 C         140.2229  139.8513  166.7095 C.ar    1  UNL1       -0.0177
     26 C         141.5531  140.1463  166.0824 C.ar    1  UNL1       -0.0033
     27 C         142.5911  140.9104  166.8497 C.ar    1  UNL1        0.0130
     28 C         142.2988  141.3795  168.2441 C.ar    1  UNL1        0.1023
     29 C         140.9685  141.0845  168.8713 C.ar    1  UNL1        0.1479
     30 C         139.9306  140.3204  168.1040 C.ar    1  UNL1        0.0334
     31 C         143.3368  142.1436  169.0115 C.1     1  UNL1        0.1035
     32 N         144.3747  142.9078  169.7788 N.1     1  UNL1       -0.1907
     33 O         140.6762  141.5536  170.2657 O.3     1  UNL1       -0.4708
     34 C         139.9957  142.8720  170.4864 C.3     1  UNL1        0.2525
@<TRIPOS>BOND
     1    21    22    1
     2    22    20    1
     3    20     8    1
     4     8     7    1
     5     7     1    1
     6     1     2    1
     7     2     3    1
     8     3     4    1
     9     4    23    1
    10    23    24    1
    11    24    25    1
    12    25    26   ar
    13    26    27   ar
    14    27    28   ar
    15    28    31    1
    16    31    32    3
    17    28    29   ar
    18    29    33    1
    19    33    34    1
    20    29    30   ar
    21     4     5    1
    22     5     6    1
    23     8     9    1
    24     9    10   ar
    25    10    11   ar
    26    11    12   ar
    27    12    13   ar
    28    13    14   ar
    29    14    15    1
    30    13    16    1
    31    16    17    1
    32    17    18    1
    33    18    19    2
    34     6     1    1
    35    14     9   ar
    36    30    25   ar
    37    18    12    1
@<TRIPOS>MOLECULE
*****
 34 37 0 0 0
SMALL
GASTEIGER

@<TRIPOS>ATOM
      1 N         139.2666  143.2637  160.4916 N.3     1  UNL1       -0.2680
      2 C         139.6321  142.1443  159.5625 C.3     1  UNL1        0.0897
      3 C         139.1093  140.7609  159.8130 C.3     1  UNL1        0.0897
      4 N         138.2210  140.4969  160.9924 N.3     1  UNL1       -0.2700
      5 C         137.8554  141.6163  161.9215 C.3     1  UNL1        0.0897
      6 C         138.3782  142.9998  161.6711 C.3     1  UNL1        0.0897
      7 C         139.7894  144.6472  160.2412 C.3     1  UNL1        0.1067
      8 C         141.2667  144.9059  160.2624 C.3     1  UNL1        0.1530
      9 C         142.0755  144.5373  161.4708 C.ar    1  UNL1        0.0018
     10 C         141.8230  145.2240  162.7802 C.ar    1  UNL1       -0.0020
     11 C         142.6317  144.8554  163.9885 C.ar    1  UNL1        0.0060
     12 C         143.6929  143.8001  163.8875 C.ar    1  UNL1        0.0748
     13 C         143.9454  143.1134  162.5780 C.ar    1  UNL1        0.0233
     14 C         143.1367  143.4820  161.3696 C.ar    1  UNL1       -0.0238
     15 C         143.3891  142.7953  160.0601 C.3     1  UNL1        0.0306
     16 C         145.0501  142.1193  162.7813 C.3     1  UNL1        0.2352
     17 O         145.4804  142.1917  164.2164 O.3     1  UNL1       -0.4404
     18 C         144.6416  143.2305  164.9001 C.2     1  UNL1        0.3413
     19 O         144.7351  143.6295  166.3430 O.2     1  UNL1       -0.2449
     20 O         141.9354  145.5332  159.0752 O.3     1  UNL1       -0.3504
     21 C         141.6445  144.0514  156.9611 C.3     1  UNL1        0.0347
     22 C         141.3709  145.3273  157.7008 C.3     1  UNL1        0.1426
     23 C         137.6982  139.1134  161.2428 C.3     1  UNL1        0.0769
     24 C         138.6527  137.9649  161.3835 C.3     1  UNL1        0.0438
     25 C         139.7124  137.9960  162.4446 C.ar    1  UNL1       -0.0177
     26 C         139.3367  137.8124  163.8852 C.ar    1  UNL1       -0.0033
     27 C         140.3963  137.8435  164.9464 C.ar    1  UNL1        0.0130
     28 C         141.8316  138.0582  164.5671 C.ar    1  UNL1        0.1023
     29 C         142.2073  138.2418  163.1266 C.ar    1  UNL1        0.1479
     30 C         141.1477  138.2107  162.0653 C.ar    1  UNL1        0.0334
     31 C         142.8913  138.0894  165.6283 C.1     1  UNL1        0.1035
     32 N         143.9511  138.1204  166.6894 N.1     1  UNL1       -0.1907
     33 O         143.6425  138.4565  162.7472 O.3     1  UNL1       -0.4708
     34 C         144.0067  138.7402  161.3200 C.3     1  UNL1        0.2525
@<TRIPOS>BOND
     1    21    22    1
     2    22    20    1
     3    20     8    1
     4     8     7    1
     5     7     1    1
     6     1     2    1
     7     2     3    1
     8     3     4    1
     9     4    23    1
    10    23    24    1
    11    24    25    1
    12    25    26   ar
    13    26    27   ar
    14    27    28   ar
    15    28    31    1
    16    31    32    3
    17    28    29   ar
    18    29    33    1
    19    33    34    1
    20    29    30   ar
    21     4     5    1
    22     5     6    1
    23     8     9    1
    24     9    10   ar
    25    10    11   ar
    26    11    12   ar
    27    12    13   ar
    28    13    14   ar
    29    14    15    1
    30    13    16    1
    31    16    17    1
    32    17    18    1
    33    18    19    2
    34     6     1    1
    35    14     9   ar
    36    30    25   ar
    37    18    12    1
@<TRIPOS>MOLECULE
*****
 34 37 0 0 0
SMALL
GASTEIGER

@<TRIPOS>ATOM
      1 N         143.7723  141.8075  161.8370 N.3     1  UNL1       -0.2680
      2 C         142.9424  140.5741  161.6366 C.3     1  UNL1        0.0897
      3 C         142.8585  139.5422  162.7220 C.3     1  UNL1        0.0897
      4 N         143.6044  139.7436  164.0077 N.3     1  UNL1       -0.2700
      5 C         144.4343  140.9769  164.2080 C.3     1  UNL1        0.0897
      6 C         144.5183  142.0089  163.1227 C.3     1  UNL1        0.0897
      7 C         143.8563  142.8394  160.7516 C.3     1  UNL1        0.1067
      8 C         142.7060  143.7720  160.5128 C.3     1  UNL1        0.1530
      9 C         141.7106  144.0303  161.6049 C.ar    1  UNL1        0.0018
     10 C         142.0814  144.9042  162.7662 C.ar    1  UNL1       -0.0020
     11 C         141.0861  145.1625  163.8583 C.ar    1  UNL1        0.0060
     12 C         139.7200  144.5469  163.7891 C.ar    1  UNL1        0.0748
     13 C         139.3492  143.6729  162.6277 C.ar    1  UNL1        0.0233
     14 C         140.3445  143.4146  161.5356 C.ar    1  UNL1       -0.0238
     15 C         139.9738  142.5406  160.3742 C.3     1  UNL1        0.0306
     16 C         137.9381  143.2066  162.8304 C.3     1  UNL1        0.2352
     17 O         137.4367  143.7924  164.1171 O.3     1  UNL1       -0.4404
     18 C         138.5380  144.6207  164.7096 C.2     1  UNL1        0.3413
     19 O         138.4693  145.3881  165.9965 O.2     1  UNL1       -0.2449
     20 O         142.5509  144.4462  159.1819 O.3     1  UNL1       -0.3504
     21 C         141.6115  143.3135  157.0407 C.3     1  UNL1        0.0347
     22 C         142.7749  143.6707  157.9176 C.3     1  UNL1        0.1426
     23 C         143.5204  138.7116  165.0930 C.3     1  UNL1        0.0769
     24 C         142.2895  138.6177  165.9452 C.3     1  UNL1        0.0438
     25 C         141.8635  139.7895  166.7790 C.ar    1  UNL1       -0.0177
     26 C         140.6754  140.6087  166.3699 C.ar    1  UNL1       -0.0033
     27 C         140.2492  141.7805  167.2037 C.ar    1  UNL1        0.0130
     28 C         141.0112  142.1330  168.4467 C.ar    1  UNL1        0.1023
     29 C         142.1992  141.3139  168.8559 C.ar    1  UNL1        0.1479
     30 C         142.6254  140.1421  168.0221 C.ar    1  UNL1        0.0334
     31 C         140.5851  143.3049  169.2807 C.1     1  UNL1        0.1035
     32 N         140.1589  144.4766  170.1146 N.1     1  UNL1       -0.1907
     33 O         142.9612  141.6665  170.0989 O.3     1  UNL1       -0.4708
     34 C         144.1714  142.5485  170.0120 C.3     1  UNL1        0.2525
@<TRIPOS>BOND
     1    21    22    1
     2    22    20    1
     3    20     8    1
     4     8     7    1
     5     7     1    1
     6     1     2    1
     7     2     3    1
     8     3     4    1
     9     4    23    1
    10    23    24    1
    11    24    25    1
    12    25    26   ar
    13    26    27   ar
    14    27    28   ar
    15    28    31    1
    16    31    32    3
    17    28    29   ar
    18    29    33    1
    19    33    34    1
    20    29    30   ar
    21     4     5    1
    22     5     6    1
    23     8     9    1
    24     9    10   ar
    25    10    11   ar
    26    11    12   ar
    27    12    13   ar
    28    13    14   ar
    29    14    15    1
    30    13    16    1
    31    16    17    1
    32    17    18    1
    33    18    19    2
    34     6     1    1
    35    14     9   ar
    36    30    25   ar
    37    18    12    1
