@<TRIPOS>MOLECULE
*****
 37 42 0 0 0
SMALL
GASTEIGER

@<TRIPOS>ATOM
      1 C         140.3887  145.4380  159.2032 C.3     1  UNL1        0.0666
      2 S         140.0779  144.1163  158.5655 S.3     1  UNL1       -0.0756
      3 C         139.6801  140.9784  160.8150 C.ar    1  UNL1        0.1669
      4 N         138.2478  141.3791  160.6205 N.ar    1  UNL1       -0.1282
      5 N         138.2225  142.6033  159.7542 N.ar    1  UNL1       -0.1221
      6 C         139.6391  142.9593  159.4132 C.ar    1  UNL1        0.1932
      7 N         140.5400  141.9550  160.0689 N.ar    1  UNL1       -0.2884
      8 C         142.0379  141.9315  159.9919 C.3     1  UNL1        0.1340
      9 C         138.1404  138.9342  167.1947 C.3     1  UNL1        0.0521
     10 C         138.6471  139.1524  165.7998 C.ar    1  UNL1        0.0593
     11 C         138.1602  140.3240  164.9997 C.ar    1  UNL1        0.0147
     12 C         138.6668  140.5421  163.6048 C.ar    1  UNL1        0.0028
     13 C         139.6604  139.5886  163.0100 C.ar    1  UNL1        0.0206
     14 C         140.1670  139.8068  161.6152 C.ar    1  UNL1        0.0374
     15 C         141.1606  138.8533  161.0204 C.ar    1  UNL1        0.0031
     16 C         141.6475  137.6817  161.8205 C.ar    1  UNL1        0.0016
     17 C         141.1409  137.4635  163.2154 C.ar    1  UNL1        0.0191
     18 C         140.1473  138.4170  163.8102 C.ar    1  UNL1        0.0810
     19 N         139.6407  138.1989  165.2050 N.ar    1  UNL1       -0.2497
     20 C         141.0299  145.4845  160.5585 C.3     1  UNL1        0.0294
     21 C         140.1781  145.6018  161.7876 C.3     1  UNL1        0.0730
     22 N         140.4240  144.6985  162.9595 N.3     1  UNL1       -0.2720
     23 C         139.4778  144.8563  164.1127 C.3     1  UNL1        0.0768
     24 C         139.4576  144.1114  165.4145 C.3     1  UNL1        0.0434
     25 C         140.3784  143.0247  165.8847 C.ar    1  UNL1       -0.0233
     26 C         140.0071  142.5474  167.2574 C.ar    1  UNL1        0.0129
     27 C         140.8044  141.4600  167.9146 C.ar    1  UNL1        0.0788
     28 C         141.9730  140.8498  167.1991 C.ar    1  UNL1        0.1512
     29 C         142.3443  141.3271  165.8263 C.ar    1  UNL1        0.0336
     30 C         141.5471  142.4145  165.1692 C.ar    1  UNL1       -0.0216
     31 C         142.0834  142.7404  163.8067 C.3     1  UNL1        0.0434
     32 C         141.5837  143.7568  162.8233 C.3     1  UNL1        0.0768
     33 O         142.7703  139.7625  167.8562 O.3     1  UNL1       -0.4724
     34 C         142.3989  139.2853  169.2289 C.3     1  UNL1        0.2265
     35 C         141.2303  139.8954  169.9444 C.3     1  UNL1        0.1352
     36 N         140.4330  140.9828  169.2873 N.pl3   1  UNL1       -0.3273
     37 H         139.6660  141.3833  169.7569 H       1  UNL1        0.1470
@<TRIPOS>BOND
     1     9    10    1
     2    10    11   ar
     3    11    12   ar
     4    12    13   ar
     5    13    14   ar
     6    14     3    1
     7     3     4   ar
     8     4     5   ar
     9     5     6   ar
    10     6     2    1
    11     2     1    1
    12     1    20    1
    13    20    21    1
    14    21    22    1
    15    22    23    1
    16    23    24    1
    17    24    25    1
    18    25    26   ar
    19    26    27   ar
    20    27    28   ar
    21    28    29   ar
    22    29    30   ar
    23    30    31    1
    24    31    32    1
    25    28    33    1
    26    33    34    1
    27    34    35    1
    28    35    36    1
    29     6     7   ar
    30     7     8    1
    31    14    15   ar
    32    15    16   ar
    33    16    17   ar
    34    17    18   ar
    35    18    19   ar
    36    19    10   ar
    37    18    13   ar
    38     7     3   ar
    39    32    22    1
    40    30    25   ar
    41    36    27    1
    42    36    37    1
@<TRIPOS>MOLECULE
*****
 37 42 0 0 0
SMALL
GASTEIGER

@<TRIPOS>ATOM
      1 C         140.0877  144.7941  158.5955 C.3     1  UNL1        0.0666
      2 S         139.9163  143.3055  158.5246 S.3     1  UNL1       -0.0756
      3 C         140.3865  141.2285  161.7695 C.ar    1  UNL1        0.1669
      4 N         141.7057  141.0079  161.0905 N.ar    1  UNL1       -0.1282
      5 N         141.6901  141.7590  159.7923 N.ar    1  UNL1       -0.1221
      6 C         140.3613  142.4439  159.6690 C.ar    1  UNL1        0.1932
      7 N         139.5557  142.1160  160.8910 N.ar    1  UNL1       -0.2884
      8 C         138.1635  142.5921  161.1831 C.3     1  UNL1        0.1340
      9 C         144.0157  137.9433  166.5951 C.3     1  UNL1        0.0521
     10 C         143.0046  138.6228  165.7199 C.ar    1  UNL1        0.0593
     11 C         143.4200  139.1901  164.3950 C.ar    1  UNL1        0.0147
     12 C         142.4088  139.8695  163.5199 C.ar    1  UNL1        0.0028
     13 C         140.9822  139.9816  163.9697 C.ar    1  UNL1        0.0206
     14 C         139.9711  140.6611  163.0945 C.ar    1  UNL1        0.0374
     15 C         138.5445  140.7732  163.5444 C.ar    1  UNL1        0.0031
     16 C         138.1291  140.2058  164.8693 C.ar    1  UNL1        0.0016
     17 C         139.1402  139.5264  165.7445 C.ar    1  UNL1        0.0191
     18 C         140.5668  139.4143  165.2946 C.ar    1  UNL1        0.0810
     19 N         141.5780  138.7349  166.1698 N.ar    1  UNL1       -0.2497
     20 C         140.9190  145.4021  159.6860 C.3     1  UNL1        0.0294
     21 C         140.2672  145.8717  160.9527 C.3     1  UNL1        0.0730
     22 N         140.5123  145.1391  162.2385 N.3     1  UNL1       -0.2720
     23 C         141.8873  144.5640  162.4080 C.3     1  UNL1        0.0768
     24 C         142.4395  143.7863  163.5656 C.3     1  UNL1        0.0434
     25 C         141.7533  143.3915  164.8397 C.ar    1  UNL1       -0.0233
     26 C         142.6696  142.6143  165.7377 C.ar    1  UNL1        0.0129
     27 C         142.1778  142.1226  167.0668 C.ar    1  UNL1        0.0788
     28 C         140.7698  142.4082  167.4979 C.ar    1  UNL1        0.1512
     29 C         139.8535  143.1854  166.5999 C.ar    1  UNL1        0.0336
     30 C         140.3452  143.6771  165.2708 C.ar    1  UNL1       -0.0216
     31 C         139.2757  144.4279  164.5343 C.3     1  UNL1        0.0434
     32 C         139.3500  145.0786  163.1848 C.3     1  UNL1        0.0768
     33 O         140.2780  141.9166  168.8269 O.3     1  UNL1       -0.4724
     34 C         141.1943  141.1394  169.7249 C.3     1  UNL1        0.2265
     35 C         142.6023  140.8538  169.2938 C.3     1  UNL1        0.1352
     36 N         143.0941  141.3455  167.9647 N.pl3   1  UNL1       -0.3273
     37 H         144.0182  141.1580  167.6818 H       1  UNL1        0.1470
@<TRIPOS>BOND
     1     9    10    1
     2    10    11   ar
     3    11    12   ar
     4    12    13   ar
     5    13    14   ar
     6    14     3    1
     7     3     4   ar
     8     4     5   ar
     9     5     6   ar
    10     6     2    1
    11     2     1    1
    12     1    20    1
    13    20    21    1
    14    21    22    1
    15    22    23    1
    16    23    24    1
    17    24    25    1
    18    25    26   ar
    19    26    27   ar
    20    27    28   ar
    21    28    29   ar
    22    29    30   ar
    23    30    31    1
    24    31    32    1
    25    28    33    1
    26    33    34    1
    27    34    35    1
    28    35    36    1
    29     6     7   ar
    30     7     8    1
    31    14    15   ar
    32    15    16   ar
    33    16    17   ar
    34    17    18   ar
    35    18    19   ar
    36    19    10   ar
    37    18    13   ar
    38     7     3   ar
    39    32    22    1
    40    30    25   ar
    41    36    27    1
    42    36    37    1
@<TRIPOS>MOLECULE
*****
 37 42 0 0 0
SMALL
GASTEIGER

@<TRIPOS>ATOM
      1 C         140.3410  145.4271  159.6457 C.3     1  UNL1        0.0666
      2 S         140.1857  144.1514  158.8720 S.3     1  UNL1       -0.0756
      3 C         140.5855  140.8042  160.7959 C.ar    1  UNL1        0.1669
      4 N         141.8925  140.8753  160.0633 N.ar    1  UNL1       -0.1282
      5 N         141.9018  142.1378  159.2535 N.ar    1  UNL1       -0.1221
      6 C         140.6006  142.8470  159.4856 C.ar    1  UNL1        0.1932
      7 N         139.7871  142.0227  160.4389 N.ar    1  UNL1       -0.2884
      8 C         138.4159  142.3583  160.9461 C.3     1  UNL1        0.1340
      9 C         143.5995  138.1942  166.3954 C.3     1  UNL1        0.0521
     10 C         142.7378  138.5724  165.2273 C.ar    1  UNL1        0.0593
     11 C         143.1705  139.6695  164.3003 C.ar    1  UNL1        0.0147
     12 C         142.3088  140.0477  163.1322 C.ar    1  UNL1        0.0028
     13 C         141.0146  139.3288  162.8911 C.ar    1  UNL1        0.0206
     14 C         140.1529  139.7071  161.7230 C.ar    1  UNL1        0.0374
     15 C         138.8587  138.9882  161.4818 C.ar    1  UNL1        0.0031
     16 C         138.4260  137.8911  162.4087 C.ar    1  UNL1        0.0016
     17 C         139.2877  137.5129  163.5768 C.ar    1  UNL1        0.0191
     18 C         140.5819  138.2318  163.8180 C.ar    1  UNL1        0.0810
     19 N         141.4436  137.8535  164.9861 N.ar    1  UNL1       -0.2497
     20 C         140.3911  145.3939  161.1445 C.3     1  UNL1        0.0294
     21 C         141.6868  145.1113  161.8455 C.3     1  UNL1        0.0730
     22 N         141.6950  144.3040  163.1097 N.3     1  UNL1       -0.2720
     23 C         140.3641  143.7700  163.5496 C.3     1  UNL1        0.0768
     24 C         140.0426  142.9376  164.7553 C.3     1  UNL1        0.0434
     25 C         140.9725  142.4335  165.8189 C.ar    1  UNL1       -0.0233
     26 C         140.2391  141.6324  166.8534 C.ar    1  UNL1        0.0129
     27 C         140.9868  141.0352  168.0085 C.ar    1  UNL1        0.0788
     28 C         142.4680  141.2391  168.1291 C.ar    1  UNL1        0.1512
     29 C         143.2014  142.0403  167.0945 C.ar    1  UNL1        0.0336
     30 C         142.4537  142.6375  165.9394 C.ar    1  UNL1       -0.0216
     31 C         143.3707  143.3958  165.0262 C.3     1  UNL1        0.0434
     32 C         143.0331  144.1375  163.7668 C.3     1  UNL1        0.0768
     33 O         143.2157  140.6420  169.2842 O.3     1  UNL1       -0.4724
     34 C         142.4823  139.8409  170.3187 C.3     1  UNL1        0.2265
     35 C         141.0011  139.6370  170.1981 C.3     1  UNL1        0.1352
     36 N         140.2534  140.2341  169.0431 N.pl3   1  UNL1       -0.3273
     37 H         139.2812  140.1003  168.9639 H       1  UNL1        0.1470
@<TRIPOS>BOND
     1     9    10    1
     2    10    11   ar
     3    11    12   ar
     4    12    13   ar
     5    13    14   ar
     6    14     3    1
     7     3     4   ar
     8     4     5   ar
     9     5     6   ar
    10     6     2    1
    11     2     1    1
    12     1    20    1
    13    20    21    1
    14    21    22    1
    15    22    23    1
    16    23    24    1
    17    24    25    1
    18    25    26   ar
    19    26    27   ar
    20    27    28   ar
    21    28    29   ar
    22    29    30   ar
    23    30    31    1
    24    31    32    1
    25    28    33    1
    26    33    34    1
    27    34    35    1
    28    35    36    1
    29     6     7   ar
    30     7     8    1
    31    14    15   ar
    32    15    16   ar
    33    16    17   ar
    34    17    18   ar
    35    18    19   ar
    36    19    10   ar
    37    18    13   ar
    38     7     3   ar
    39    32    22    1
    40    30    25   ar
    41    36    27    1
    42    36    37    1
@<TRIPOS>MOLECULE
*****
 37 42 0 0 0
SMALL
GASTEIGER

@<TRIPOS>ATOM
      1 C         139.9721  144.6715  156.9742 C.3     1  UNL1        0.0666
      2 S         140.4317  145.3696  158.2198 S.3     1  UNL1       -0.0756
      3 C         142.6679  143.9770  161.0702 C.ar    1  UNL1        0.1669
      4 N         143.4125  143.5002  159.8585 N.ar    1  UNL1       -0.1282
      5 N         142.6654  143.9638  158.6433 N.ar    1  UNL1       -0.1221
      6 C         141.4591  144.7272  159.1039 C.ar    1  UNL1        0.1932
      7 N         141.4608  144.7353  160.6039 N.ar    1  UNL1       -0.2884
      8 C         140.4351  145.3873  161.4831 C.3     1  UNL1        0.1340
      9 C         142.1876  138.3488  164.9872 C.3     1  UNL1        0.0521
     10 C         142.4061  139.6960  164.3648 C.ar    1  UNL1        0.0593
     11 C         142.0125  139.9354  162.9373 C.ar    1  UNL1        0.0147
     12 C         142.2310  141.2826  162.3150 C.ar    1  UNL1        0.0028
     13 C         142.8431  142.3904  163.1201 C.ar    1  UNL1        0.0206
     14 C         143.0616  143.7375  162.4978 C.ar    1  UNL1        0.0374
     15 C         143.6737  144.8453  163.3029 C.ar    1  UNL1        0.0031
     16 C         144.0674  144.6059  164.7304 C.ar    1  UNL1        0.0016
     17 C         143.8489  143.2587  165.3527 C.ar    1  UNL1        0.0191
     18 C         143.2367  142.1509  164.5476 C.ar    1  UNL1        0.0810
     19 N         143.0183  140.8038  165.1700 N.ar    1  UNL1       -0.2497
     20 C         138.8621  143.6650  157.0447 C.3     1  UNL1        0.0294
     21 C         139.1788  142.2116  157.2374 C.3     1  UNL1        0.0730
     22 N         139.0304  141.5848  158.5920 N.3     1  UNL1       -0.2720
     23 C         138.6306  142.5147  159.6991 C.3     1  UNL1        0.0768
     24 C         138.4031  142.2004  161.1480 C.3     1  UNL1        0.0434
     25 C         138.5193  140.8788  161.8479 C.ar    1  UNL1       -0.0233
     26 C         138.2046  141.0029  163.3092 C.ar    1  UNL1        0.0129
     27 C         138.2623  139.7932  164.1943 C.ar    1  UNL1        0.0788
     28 C         138.6346  138.4593  163.6179 C.ar    1  UNL1        0.1512
     29 C         138.9493  138.3352  162.1565 C.ar    1  UNL1        0.0336
     30 C         138.8916  139.5449  161.2715 C.ar    1  UNL1       -0.0216
     31 C         139.2397  139.2033  159.8530 C.3     1  UNL1        0.0434
     32 C         139.3015  140.1111  158.6605 C.3     1  UNL1        0.0768
     33 O         138.6923  137.2496  164.5029 O.3     1  UNL1       -0.4724
     34 C         138.3777  137.3738  165.9643 C.3     1  UNL1        0.2265
     35 C         138.0054  138.7077  166.5406 C.3     1  UNL1        0.1352
     36 N         137.9477  139.9174  165.6556 N.pl3   1  UNL1       -0.3273
     37 H         137.7033  140.7928  166.0339 H       1  UNL1        0.1470
@<TRIPOS>BOND
     1     9    10    1
     2    10    11   ar
     3    11    12   ar
     4    12    13   ar
     5    13    14   ar
     6    14     3    1
     7     3     4   ar
     8     4     5   ar
     9     5     6   ar
    10     6     2    1
    11     2     1    1
    12     1    20    1
    13    20    21    1
    14    21    22    1
    15    22    23    1
    16    23    24    1
    17    24    25    1
    18    25    26   ar
    19    26    27   ar
    20    27    28   ar
    21    28    29   ar
    22    29    30   ar
    23    30    31    1
    24    31    32    1
    25    28    33    1
    26    33    34    1
    27    34    35    1
    28    35    36    1
    29     6     7   ar
    30     7     8    1
    31    14    15   ar
    32    15    16   ar
    33    16    17   ar
    34    17    18   ar
    35    18    19   ar
    36    19    10   ar
    37    18    13   ar
    38     7     3   ar
    39    32    22    1
    40    30    25   ar
    41    36    27    1
    42    36    37    1
@<TRIPOS>MOLECULE
*****
 37 42 0 0 0
SMALL
GASTEIGER

@<TRIPOS>ATOM
      1 C         138.6585  140.3721  159.4871 C.3     1  UNL1        0.0666
      2 S         138.6336  139.1215  160.3150 S.3     1  UNL1       -0.0756
      3 C         140.1208  139.1540  163.9000 C.ar    1  UNL1        0.1669
      4 N         138.6733  139.4256  164.1842 N.ar    1  UNL1       -0.1282
      5 N         137.9400  139.4465  162.8759 N.ar    1  UNL1       -0.1221
      6 C         138.9343  139.1878  161.7831 C.ar    1  UNL1        0.1932
      7 N         140.2822  139.0070  162.4161 N.ar    1  UNL1       -0.2884
      8 C         141.5660  138.7281  161.6920 C.3     1  UNL1        0.1340
      9 C         140.0362  140.1210  170.7050 C.3     1  UNL1        0.0521
     10 C         140.3309  139.8527  169.2589 C.ar    1  UNL1        0.0593
     11 C         139.2367  139.9588  168.2383 C.ar    1  UNL1        0.0147
     12 C         139.5315  139.6905  166.7922 C.ar    1  UNL1        0.0028
     13 C         140.9203  139.3162  166.3668 C.ar    1  UNL1        0.0206
     14 C         141.2150  139.0479  164.9207 C.ar    1  UNL1        0.0374
     15 C         142.6039  138.6736  164.4952 C.ar    1  UNL1        0.0031
     16 C         143.6980  138.5676  165.5158 C.ar    1  UNL1        0.0016
     17 C         143.4033  138.8358  166.9618 C.ar    1  UNL1        0.0191
     18 C         142.0144  139.2102  167.3873 C.ar    1  UNL1        0.0810
     19 N         141.7197  139.4784  168.8334 N.ar    1  UNL1       -0.2497
     20 C         139.7859  141.3498  159.6390 C.3     1  UNL1        0.0294
     21 C         139.5922  142.5982  160.4477 C.3     1  UNL1        0.0730
     22 N         140.0420  142.6426  161.8780 N.3     1  UNL1       -0.2720
     23 C         141.4871  142.3184  162.1161 C.3     1  UNL1        0.0768
     24 C         142.2342  142.2769  163.4161 C.3     1  UNL1        0.0434
     25 C         141.7210  142.5493  164.7991 C.ar    1  UNL1       -0.0233
     26 C         142.8042  142.3971  165.8255 C.ar    1  UNL1        0.0129
     27 C         142.5001  142.6262  167.2764 C.ar    1  UNL1        0.0788
     28 C         141.1128  143.0073  167.7009 C.ar    1  UNL1        0.1512
     29 C         140.0296  143.1595  166.6744 C.ar    1  UNL1        0.0336
     30 C         140.3337  142.9304  165.2235 C.ar    1  UNL1       -0.0216
     31 C         139.1171  143.1334  164.3699 C.3     1  UNL1        0.0434
     32 C         138.9872  143.0053  162.8810 C.3     1  UNL1        0.0768
     33 O         140.8087  143.2364  169.1517 O.3     1  UNL1       -0.4724
     34 C         141.8919  143.0842  170.1781 C.3     1  UNL1        0.2265
     35 C         143.2792  142.7031  169.7536 C.3     1  UNL1        0.1352
     36 N         143.5833  142.4740  168.3028 N.pl3   1  UNL1       -0.3273
     37 H         144.4938  142.2239  168.0242 H       1  UNL1        0.1470
@<TRIPOS>BOND
     1     9    10    1
     2    10    11   ar
     3    11    12   ar
     4    12    13   ar
     5    13    14   ar
     6    14     3    1
     7     3     4   ar
     8     4     5   ar
     9     5     6   ar
    10     6     2    1
    11     2     1    1
    12     1    20    1
    13    20    21    1
    14    21    22    1
    15    22    23    1
    16    23    24    1
    17    24    25    1
    18    25    26   ar
    19    26    27   ar
    20    27    28   ar
    21    28    29   ar
    22    29    30   ar
    23    30    31    1
    24    31    32    1
    25    28    33    1
    26    33    34    1
    27    34    35    1
    28    35    36    1
    29     6     7   ar
    30     7     8    1
    31    14    15   ar
    32    15    16   ar
    33    16    17   ar
    34    17    18   ar
    35    18    19   ar
    36    19    10   ar
    37    18    13   ar
    38     7     3   ar
    39    32    22    1
    40    30    25   ar
    41    36    27    1
    42    36    37    1
@<TRIPOS>MOLECULE
*****
 37 42 0 0 0
SMALL
GASTEIGER

@<TRIPOS>ATOM
      1 C         141.2868  138.9285  158.4196 C.3     1  UNL1        0.0666
      2 S         142.6708  139.4399  158.6900 S.3     1  UNL1       -0.0756
      3 C         143.6799  140.4307  162.3046 C.ar    1  UNL1        0.1669
      4 N         144.1787  139.0175  162.2415 N.ar    1  UNL1       -0.1282
      5 N         143.8614  138.4743  160.8798 N.ar    1  UNL1       -0.1221
      6 C         143.1665  139.5518  160.1013 C.ar    1  UNL1        0.1932
      7 N         143.0544  140.7609  160.9819 N.ar    1  UNL1       -0.2884
      8 C         142.4268  142.0704  160.6057 C.3     1  UNL1        0.1340
      9 C         142.5067  139.3412  168.9893 C.3     1  UNL1        0.0521
     10 C         142.8270  139.8439  167.6129 C.ar    1  UNL1        0.0593
     11 C         142.7191  138.9226  166.4341 C.ar    1  UNL1        0.0147
     12 C         143.0394  139.4253  165.0576 C.ar    1  UNL1        0.0028
     13 C         143.4675  140.8493  164.8599 C.ar    1  UNL1        0.0206
     14 C         143.7878  141.3520  163.4835 C.ar    1  UNL1        0.0374
     15 C         144.2160  142.7759  163.2858 C.ar    1  UNL1        0.0031
     16 C         144.3238  143.6972  164.4646 C.ar    1  UNL1        0.0016
     17 C         144.0036  143.1945  165.8411 C.ar    1  UNL1        0.0191
     18 C         143.5754  141.7705  166.0388 C.ar    1  UNL1        0.0810
     19 N         143.2551  141.2678  167.4152 N.ar    1  UNL1       -0.2497
     20 C         140.1062  139.5723  159.0842 C.3     1  UNL1        0.0294
     21 C         139.2852  138.7958  160.0705 C.3     1  UNL1        0.0730
     22 N         139.3185  139.1597  161.5253 N.3     1  UNL1       -0.2720
     23 C         138.8363  138.1009  162.4722 C.3     1  UNL1        0.0768
     24 C         138.7462  138.1553  163.9685 C.3     1  UNL1        0.0434
     25 C         139.1159  139.2817  164.8875 C.ar    1  UNL1       -0.0233
     26 C         138.8692  138.9217  166.3226 C.ar    1  UNL1        0.0129
     27 C         139.1736  139.9120  167.4073 C.ar    1  UNL1        0.0788
     28 C         139.7249  141.2624  167.0569 C.ar    1  UNL1        0.1512
     29 C         139.9716  141.6223  165.6218 C.ar    1  UNL1        0.0336
     30 C         139.6672  140.6320  164.5371 C.ar    1  UNL1       -0.0216
     31 C         139.9848  141.1894  163.1812 C.3     1  UNL1        0.0434
     32 C         139.8296  140.5342  161.8408 C.3     1  UNL1        0.0768
     33 O         140.0294  142.2527  168.1416 O.3     1  UNL1       -0.4724
     34 C         139.7826  141.8926  169.5767 C.3     1  UNL1        0.2265
     35 C         139.2314  140.5423  169.9271 C.3     1  UNL1        0.1352
     36 N         138.9269  139.5520  168.8424 N.pl3   1  UNL1       -0.3273
     37 H         138.5651  138.6658  169.0724 H       1  UNL1        0.1470
@<TRIPOS>BOND
     1     9    10    1
     2    10    11   ar
     3    11    12   ar
     4    12    13   ar
     5    13    14   ar
     6    14     3    1
     7     3     4   ar
     8     4     5   ar
     9     5     6   ar
    10     6     2    1
    11     2     1    1
    12     1    20    1
    13    20    21    1
    14    21    22    1
    15    22    23    1
    16    23    24    1
    17    24    25    1
    18    25    26   ar
    19    26    27   ar
    20    27    28   ar
    21    28    29   ar
    22    29    30   ar
    23    30    31    1
    24    31    32    1
    25    28    33    1
    26    33    34    1
    27    34    35    1
    28    35    36    1
    29     6     7   ar
    30     7     8    1
    31    14    15   ar
    32    15    16   ar
    33    16    17   ar
    34    17    18   ar
    35    18    19   ar
    36    19    10   ar
    37    18    13   ar
    38     7     3   ar
    39    32    22    1
    40    30    25   ar
    41    36    27    1
    42    36    37    1
@<TRIPOS>MOLECULE
*****
 37 42 0 0 0
SMALL
GASTEIGER

@<TRIPOS>ATOM
      1 C         140.1134  144.8951  158.0581 C.3     1  UNL1        0.0666
      2 S         139.4534  143.5525  157.9475 S.3     1  UNL1       -0.0756
      3 C         139.5436  141.0425  160.9067 C.ar    1  UNL1        0.1669
      4 N         138.2986  141.8176  161.2219 N.ar    1  UNL1       -0.1282
      5 N         138.1134  142.8522  160.1518 N.ar    1  UNL1       -0.1221
      6 C         139.2438  142.7165  159.1752 C.ar    1  UNL1        0.1932
      7 N         140.1276  141.5980  159.6418 N.ar    1  UNL1       -0.2884
      8 C         141.3764  141.1192  158.9626 C.3     1  UNL1        0.1340
      9 C         137.9675  138.7945  167.2085 C.3     1  UNL1        0.0521
     10 C         138.5021  139.0735  165.8350 C.ar    1  UNL1        0.0593
     11 C         137.9399  140.2054  165.0271 C.ar    1  UNL1        0.0147
     12 C         138.4745  140.4844  163.6537 C.ar    1  UNL1        0.0028
     13 C         139.5711  139.6315  163.0881 C.ar    1  UNL1        0.0206
     14 C         140.1057  139.9105  161.7147 C.ar    1  UNL1        0.0374
     15 C         141.2023  139.0576  161.1491 C.ar    1  UNL1        0.0031
     16 C         141.7644  137.9256  161.9570 C.ar    1  UNL1        0.0016
     17 C         141.2299  137.6466  163.3304 C.ar    1  UNL1        0.0191
     18 C         140.1333  138.4995  163.8960 C.ar    1  UNL1        0.0810
     19 N         139.5987  138.2205  165.2695 N.ar    1  UNL1       -0.2497
     20 C         141.0866  145.1632  159.1675 C.3     1  UNL1        0.0294
     21 C         140.5951  145.6746  160.4892 C.3     1  UNL1        0.0730
     22 N         140.7340  144.8280  161.7196 N.3     1  UNL1       -0.2720
     23 C         141.8257  143.7999  161.6823 C.3     1  UNL1        0.0768
     24 C         142.2159  142.8114  162.7409 C.3     1  UNL1        0.0434
     25 C         141.6108  142.6066  164.0981 C.ar    1  UNL1       -0.0233
     26 C         142.3035  141.5068  164.8467 C.ar    1  UNL1        0.0129
     27 C         141.8515  141.1402  166.2293 C.ar    1  UNL1        0.0788
     28 C         140.7068  141.8735  166.8632 C.ar    1  UNL1        0.1512
     29 C         140.0140  142.9734  166.1145 C.ar    1  UNL1        0.0336
     30 C         140.4661  143.3400  164.7320 C.ar    1  UNL1       -0.0216
     31 C         139.6437  144.4591  164.1652 C.3     1  UNL1        0.0434
     32 C         139.7629  145.1214  162.8246 C.3     1  UNL1        0.0768
     33 O         140.2547  141.5070  168.2456 O.3     1  UNL1       -0.4724
     34 C         140.9474  140.4072  168.9942 C.3     1  UNL1        0.2265
     35 C         142.0922  139.6739  168.3604 C.3     1  UNL1        0.1352
     36 N         142.5442  140.0404  166.9779 N.pl3   1  UNL1       -0.3273
     37 H         143.2955  139.5591  166.5619 H       1  UNL1        0.1470
@<TRIPOS>BOND
     1     9    10    1
     2    10    11   ar
     3    11    12   ar
     4    12    13   ar
     5    13    14   ar
     6    14     3    1
     7     3     4   ar
     8     4     5   ar
     9     5     6   ar
    10     6     2    1
    11     2     1    1
    12     1    20    1
    13    20    21    1
    14    21    22    1
    15    22    23    1
    16    23    24    1
    17    24    25    1
    18    25    26   ar
    19    26    27   ar
    20    27    28   ar
    21    28    29   ar
    22    29    30   ar
    23    30    31    1
    24    31    32    1
    25    28    33    1
    26    33    34    1
    27    34    35    1
    28    35    36    1
    29     6     7   ar
    30     7     8    1
    31    14    15   ar
    32    15    16   ar
    33    16    17   ar
    34    17    18   ar
    35    18    19   ar
    36    19    10   ar
    37    18    13   ar
    38     7     3   ar
    39    32    22    1
    40    30    25   ar
    41    36    27    1
    42    36    37    1
@<TRIPOS>MOLECULE
*****
 37 42 0 0 0
SMALL
GASTEIGER

@<TRIPOS>ATOM
      1 C         142.9730  143.8903  157.9361 C.3     1  UNL1        0.0666
      2 S         141.6109  144.5188  157.9355 S.3     1  UNL1       -0.0756
      3 C         139.1809  143.3137  160.7118 C.ar    1  UNL1        0.1669
      4 N         138.4948  142.7973  159.4819 N.ar    1  UNL1       -0.1282
      5 N         139.3216  143.1858  158.2922 N.ar    1  UNL1       -0.1221
      6 C         140.5186  143.9424  158.7868 C.ar    1  UNL1        0.1932
      7 N         140.4316  144.0214  160.2822 N.ar    1  UNL1       -0.2884
      8 C         141.4217  144.6908  161.1888 C.3     1  UNL1        0.1340
      9 C         138.9627  137.7782  164.7812 C.3     1  UNL1        0.0521
     10 C         138.8971  139.1214  164.1168 C.ar    1  UNL1        0.0593
     11 C         139.3776  139.2841  162.7052 C.ar    1  UNL1        0.0147
     12 C         139.3120  140.6273  162.0407 C.ar    1  UNL1        0.0028
     13 C         138.7660  141.8078  162.7879 C.ar    1  UNL1        0.0206
     14 C         138.7004  143.1510  162.1235 C.ar    1  UNL1        0.0374
     15 C         138.1544  144.3315  162.8706 C.ar    1  UNL1        0.0031
     16 C         137.6739  144.1688  164.2823 C.ar    1  UNL1        0.0016
     17 C         137.7395  142.8257  164.9467 C.ar    1  UNL1        0.0191
     18 C         138.2855  141.6451  164.1995 C.ar    1  UNL1        0.0810
     19 N         138.3511  140.3019  164.8640 N.ar    1  UNL1       -0.2497
     20 C         143.2033  142.6000  158.6656 C.3     1  UNL1        0.0294
     21 C         144.3371  142.4817  159.6404 C.3     1  UNL1        0.0730
     22 N         144.0538  142.2857  161.1003 N.3     1  UNL1       -0.2720
     23 C         143.2907  141.0437  161.4541 C.3     1  UNL1        0.0768
     24 C         142.8564  140.5669  162.8084 C.3     1  UNL1        0.0434
     25 C         143.0778  141.2143  164.1433 C.ar    1  UNL1       -0.0233
     26 C         142.4772  140.4025  165.2524 C.ar    1  UNL1        0.0129
     27 C         142.5870  140.8748  166.6719 C.ar    1  UNL1        0.0788
     28 C         143.2974  142.1590  166.9822 C.ar    1  UNL1        0.1512
     29 C         143.8981  142.9708  165.8730 C.ar    1  UNL1        0.0336
     30 C         143.7882  142.4984  164.4536 C.ar    1  UNL1       -0.0216
     31 C         144.4528  143.4523  163.5056 C.3     1  UNL1        0.0434
     32 C         144.5710  143.3577  162.0133 C.3     1  UNL1        0.0768
     33 O         143.4073  142.6313  168.4016 O.3     1  UNL1       -0.4724
     34 C         142.8067  141.8195  169.5108 C.3     1  UNL1        0.2265
     35 C         142.0962  140.5354  169.2005 C.3     1  UNL1        0.1352
     36 N         141.9863  140.0631  167.7811 N.pl3   1  UNL1       -0.3273
     37 H         141.5200  139.2202  167.5774 H       1  UNL1        0.1470
@<TRIPOS>BOND
     1     9    10    1
     2    10    11   ar
     3    11    12   ar
     4    12    13   ar
     5    13    14   ar
     6    14     3    1
     7     3     4   ar
     8     4     5   ar
     9     5     6   ar
    10     6     2    1
    11     2     1    1
    12     1    20    1
    13    20    21    1
    14    21    22    1
    15    22    23    1
    16    23    24    1
    17    24    25    1
    18    25    26   ar
    19    26    27   ar
    20    27    28   ar
    21    28    29   ar
    22    29    30   ar
    23    30    31    1
    24    31    32    1
    25    28    33    1
    26    33    34    1
    27    34    35    1
    28    35    36    1
    29     6     7   ar
    30     7     8    1
    31    14    15   ar
    32    15    16   ar
    33    16    17   ar
    34    17    18   ar
    35    18    19   ar
    36    19    10   ar
    37    18    13   ar
    38     7     3   ar
    39    32    22    1
    40    30    25   ar
    41    36    27    1
    42    36    37    1
@<TRIPOS>MOLECULE
*****
 37 42 0 0 0
SMALL
GASTEIGER

@<TRIPOS>ATOM
      1 C         142.6295  137.7510  159.2033 C.3     1  UNL1        0.0666
      2 S         142.7469  138.9549  158.3161 S.3     1  UNL1       -0.0756
      3 C         142.2708  142.4324  159.9729 C.ar    1  UNL1        0.1669
      4 N         143.7502  142.4296  159.7249 N.ar    1  UNL1       -0.1282
      5 N         144.1086  141.1266  159.0741 N.ar    1  UNL1       -0.1221
      6 C         142.8507  140.3241  158.9199 C.ar    1  UNL1        0.1932
      7 N         141.7149  141.1312  159.4753 N.ar    1  UNL1       -0.2884
      8 C         140.2759  140.7107  159.5246 C.3     1  UNL1        0.1340
      9 C         140.1379  143.3047  166.4490 C.3     1  UNL1        0.0521
     10 C         140.4747  143.3640  164.9885 C.ar    1  UNL1        0.0593
     11 C         141.2603  142.2546  164.3544 C.ar    1  UNL1        0.0147
     12 C         141.5971  142.3139  162.8939 C.ar    1  UNL1        0.0028
     13 C         141.1484  143.4826  162.0675 C.ar    1  UNL1        0.0206
     14 C         141.4852  143.5419  160.6071 C.ar    1  UNL1        0.0374
     15 C         141.0365  144.7106  159.7807 C.ar    1  UNL1        0.0031
     16 C         140.2510  145.8200  160.4149 C.ar    1  UNL1        0.0016
     17 C         139.9141  145.7607  161.8753 C.ar    1  UNL1        0.0191
     18 C         140.3629  144.5920  162.7017 C.ar    1  UNL1        0.0810
     19 N         140.0260  144.5327  164.1621 N.ar    1  UNL1       -0.2497
     20 C         142.6711  137.9110  160.6941 C.3     1  UNL1        0.0294
     21 C         141.4077  137.8040  161.4955 C.3     1  UNL1        0.0730
     22 N         141.3872  138.2522  162.9268 N.3     1  UNL1       -0.2720
     23 C         140.0317  138.5496  163.4962 C.3     1  UNL1        0.0768
     24 C         139.6792  139.0120  164.8790 C.3     1  UNL1        0.0434
     25 C         140.5949  139.2912  166.0338 C.ar    1  UNL1       -0.0233
     26 C         139.8299  139.7365  167.2447 C.ar    1  UNL1        0.0129
     27 C         140.5593  140.0675  168.5129 C.ar    1  UNL1        0.0788
     28 C         142.0539  139.9532  168.5702 C.ar    1  UNL1        0.1512
     29 C         142.8189  139.5078  167.3592 C.ar    1  UNL1        0.0336
     30 C         142.0894  139.1769  166.0910 C.ar    1  UNL1       -0.0216
     31 C         143.0373  138.7551  165.0076 C.3     1  UNL1        0.0434
     32 C         142.7248  138.3436  163.5994 C.3     1  UNL1        0.0768
     33 O         142.7834  140.2842  169.8383 O.3     1  UNL1       -0.4724
     34 C         142.0183  140.7295  171.0492 C.3     1  UNL1        0.2265
     35 C         140.5238  140.8438  170.9920 C.3     1  UNL1        0.1352
     36 N         139.7943  140.5128  169.7238 N.pl3   1  UNL1       -0.3273
     37 H         138.8134  140.5879  169.6862 H       1  UNL1        0.1470
@<TRIPOS>BOND
     1     9    10    1
     2    10    11   ar
     3    11    12   ar
     4    12    13   ar
     5    13    14   ar
     6    14     3    1
     7     3     4   ar
     8     4     5   ar
     9     5     6   ar
    10     6     2    1
    11     2     1    1
    12     1    20    1
    13    20    21    1
    14    21    22    1
    15    22    23    1
    16    23    24    1
    17    24    25    1
    18    25    26   ar
    19    26    27   ar
    20    27    28   ar
    21    28    29   ar
    22    29    30   ar
    23    30    31    1
    24    31    32    1
    25    28    33    1
    26    33    34    1
    27    34    35    1
    28    35    36    1
    29     6     7   ar
    30     7     8    1
    31    14    15   ar
    32    15    16   ar
    33    16    17   ar
    34    17    18   ar
    35    18    19   ar
    36    19    10   ar
    37    18    13   ar
    38     7     3   ar
    39    32    22    1
    40    30    25   ar
    41    36    27    1
    42    36    37    1
