@<TRIPOS>MOLECULE
*****
 32 33 0 0 0
SMALL
GASTEIGER

@<TRIPOS>ATOM
      1 C         141.0306  143.7058  163.8300 C.3     1  UNL1        0.1486
      2 C         142.4309  144.2425  163.7942 C.2     1  UNL1        0.2621
      3 O         143.4008  143.8809  164.8798 O.2     1  UNL1       -0.2713
      4 N         142.8613  145.1408  162.6727 N.am    1  UNL1       -0.1956
      5 O         144.2615  145.6775  162.6368 O.3     1  UNL1       -0.2951
      6 H         142.2248  145.3782  161.9601 H       1  UNL1        0.1823
      7 H         144.7532  145.3497  163.4060 H       1  UNL1        0.2414
      8 N         140.7948  142.2245  163.8208 N.pl3   1  UNL1       -0.3269
      9 H         140.3711  141.7983  163.0410 H       1  UNL1        0.1472
     10 C         143.8626  138.5918  165.9167 C.3     1  UNL1        0.0334
     11 C         142.7384  139.5762  166.0477 C.ar    1  UNL1        0.0065
     12 C         142.3287  140.4081  164.8688 C.ar    1  UNL1        0.0122
     13 C         141.2045  141.3925  164.9999 C.ar    1  UNL1        0.0444
     14 C         140.4899  141.5448  166.3099 C.ar    1  UNL1        0.0122
     15 C         140.8996  140.7129  167.4888 C.ar    1  UNL1        0.0065
     16 C         140.1850  140.8652  168.7989 C.3     1  UNL1        0.0334
     17 C         142.0238  139.7285  167.3577 C.ar    1  UNL1        0.1322
     18 F         142.4335  138.8965  168.5368 F       1  UNL1       -0.2048
     19 C         139.8663  144.6504  163.8750 C.3     1  UNL1        0.0290
     20 C         138.7877  144.4630  164.9005 C.3     1  UNL1        0.0036
     21 C         137.6906  143.4683  164.6618 C.3     1  UNL1        0.0172
     22 C         137.4931  142.8831  163.2949 C.3     1  UNL1        0.0688
     23 N         136.9139  141.5077  163.1444 N.3     1  UNL1       -0.2937
     24 H         135.9795  141.6230  162.7518 H       1  UNL1        0.1236
     25 C         137.6157  140.4866  162.2989 C.3     1  UNL1        0.0956
     26 C         138.5308  139.4847  162.9380 C.ar    1  UNL1       -0.0062
     27 C         139.5897  138.8070  162.1196 C.ar    1  UNL1       -0.0006
     28 C         140.5048  137.8050  162.7588 C.ar    1  UNL1        0.0294
     29 C         140.3612  137.4807  164.2162 C.ar    1  UNL1        0.1401
     30 F         141.2764  136.4787  164.8553 F       1  UNL1       -0.2042
     31 C         139.3024  138.1583  165.0346 C.ar    1  UNL1        0.0294
     32 C         138.3872  139.1603  164.3955 C.ar    1  UNL1       -0.0006
@<TRIPOS>BOND
     1    10    11    1
     2    11    12   ar
     3    12    13   ar
     4    13     8    1
     5     8     1    1
     6     1    19    1
     7    19    20    1
     8    20    21    1
     9    21    22    1
    10    22    23    1
    11    23    25    1
    12    25    26    1
    13    26    27   ar
    14    27    28   ar
    15    28    29   ar
    16    29    30    1
    17    29    31   ar
    18    31    32   ar
    19     1     2    1
    20     2     3    2
    21     2     4   am
    22     4     5    1
    23    13    14   ar
    24    14    15   ar
    25    15    16    1
    26    15    17   ar
    27    17    18    1
    28    17    11   ar
    29    32    26   ar
    30     8     9    1
    31    23    24    1
    32     4     6    1
    33     5     7    1
@<TRIPOS>MOLECULE
*****
 32 33 0 0 0
SMALL
GASTEIGER

@<TRIPOS>ATOM
      1 C         137.8195  142.5476  163.9982 C.3     1  UNL1        0.1486
      2 C         137.5790  142.0320  162.6102 C.2     1  UNL1        0.2621
      3 O         137.6847  142.9600  161.4365 O.2     1  UNL1       -0.2713
      4 N         137.2327  140.5883  162.3960 N.am    1  UNL1       -0.1956
      5 O         136.9922  140.0726  161.0081 O.3     1  UNL1       -0.2951
      6 H         137.1633  139.9792  163.1663 H       1  UNL1        0.1823
      7 H         137.0995  140.7963  160.3712 H       1  UNL1        0.2414
      8 N         138.0725  141.5867  165.1218 N.pl3   1  UNL1       -0.3269
      9 H         137.3354  141.3212  165.7179 H       1  UNL1        0.1472
     10 C         142.9478  142.1724  166.8216 C.3     1  UNL1        0.0334
     11 C         141.8864  141.3232  166.1872 C.ar    1  UNL1        0.0065
     12 C         140.5102  141.8795  165.9717 C.ar    1  UNL1        0.0122
     13 C         139.4488  141.0303  165.3373 C.ar    1  UNL1        0.0444
     14 C         139.7637  139.6249  164.9184 C.ar    1  UNL1        0.0122
     15 C         141.1400  139.0686  165.1338 C.ar    1  UNL1        0.0065
     16 C         141.4549  137.6631  164.7149 C.3     1  UNL1        0.0334
     17 C         142.2013  139.9178  165.7682 C.ar    1  UNL1        0.1322
     18 F         143.5776  139.3614  165.9837 F       1  UNL1       -0.2048
     19 C         137.8069  144.0241  164.2624 C.3     1  UNL1        0.0290
     20 C         139.0986  144.7639  164.4472 C.3     1  UNL1        0.0036
     21 C         140.2903  144.4141  163.6060 C.3     1  UNL1        0.0172
     22 C         141.6447  144.9499  163.9646 C.3     1  UNL1        0.0688
     23 N         142.6664  145.1847  162.8918 N.3     1  UNL1       -0.2937
     24 H         142.8400  146.1895  162.8653 H       1  UNL1        0.1236
     25 C         144.0066  144.5158  162.9731 C.3     1  UNL1        0.0956
     26 C         144.1004  143.0190  162.9495 C.ar    1  UNL1       -0.0062
     27 C         143.0722  142.2146  162.2107 C.ar    1  UNL1       -0.0006
     28 C         143.1660  140.7176  162.1872 C.ar    1  UNL1        0.0294
     29 C         144.2880  140.0252  162.9025 C.ar    1  UNL1        0.1401
     30 F         144.3818  138.5283  162.8789 F       1  UNL1       -0.2042
     31 C         145.3162  140.8296  163.6413 C.ar    1  UNL1        0.0294
     32 C         145.2224  142.3264  163.6648 C.ar    1  UNL1       -0.0006
@<TRIPOS>BOND
     1    10    11    1
     2    11    12   ar
     3    12    13   ar
     4    13     8    1
     5     8     1    1
     6     1    19    1
     7    19    20    1
     8    20    21    1
     9    21    22    1
    10    22    23    1
    11    23    25    1
    12    25    26    1
    13    26    27   ar
    14    27    28   ar
    15    28    29   ar
    16    29    30    1
    17    29    31   ar
    18    31    32   ar
    19     1     2    1
    20     2     3    2
    21     2     4   am
    22     4     5    1
    23    13    14   ar
    24    14    15   ar
    25    15    16    1
    26    15    17   ar
    27    17    18    1
    28    17    11   ar
    29    32    26   ar
    30     8     9    1
    31    23    24    1
    32     4     6    1
    33     5     7    1
@<TRIPOS>MOLECULE
*****
 32 33 0 0 0
SMALL
GASTEIGER

@<TRIPOS>ATOM
      1 C         140.2710  144.4510  163.8938 C.3     1  UNL1        0.1486
      2 C         139.4578  145.1585  162.8506 C.2     1  UNL1        0.2621
      3 O         138.0715  144.6834  162.5307 O.2     1  UNL1       -0.2713
      4 N         140.0309  146.3411  162.1275 N.am    1  UNL1       -0.1956
      5 O         139.2177  147.0486  161.0843 O.3     1  UNL1       -0.2951
      6 H         140.9407  146.6530  162.3375 H       1  UNL1        0.1823
      7 H         138.3527  146.6176  161.0014 H       1  UNL1        0.2414
      8 N         139.5964  143.5579  164.8925 N.pl3   1  UNL1       -0.3269
      9 H         139.3059  143.9209  165.7603 H       1  UNL1        0.1472
     10 C         139.7495  139.6251  161.4999 C.3     1  UNL1        0.0334
     11 C         139.4410  140.1453  162.8726 C.ar    1  UNL1        0.0065
     12 C         139.6729  141.5915  163.1962 C.ar    1  UNL1        0.0122
     13 C         139.3645  142.1117  164.5689 C.ar    1  UNL1        0.0444
     14 C         138.8242  141.1857  165.6180 C.ar    1  UNL1        0.0122
     15 C         138.5923  139.7395  165.2944 C.ar    1  UNL1        0.0065
     16 C         138.0520  138.8135  166.3435 C.3     1  UNL1        0.0334
     17 C         138.9008  139.2193  163.9217 C.ar    1  UNL1        0.1322
     18 F         138.6688  137.7731  163.5981 F       1  UNL1       -0.2048
     19 C         141.7588  144.6367  163.9384 C.3     1  UNL1        0.0290
     20 C         142.6646  143.5647  163.4090 C.3     1  UNL1        0.0036
     21 C         144.0689  143.9020  163.0037 C.3     1  UNL1        0.0172
     22 C         144.7917  143.0377  162.0134 C.3     1  UNL1        0.0688
     23 N         145.7652  142.0018  162.4921 N.3     1  UNL1       -0.2937
     24 H         146.6585  142.4760  162.6243 H       1  UNL1        0.1236
     25 C         145.4889  141.2391  163.7539 C.3     1  UNL1        0.0956
     26 C         144.4500  140.1572  163.7640 C.ar    1  UNL1       -0.0062
     27 C         143.7069  139.8428  165.0285 C.ar    1  UNL1       -0.0006
     28 C         142.6680  138.7607  165.0386 C.ar    1  UNL1        0.0294
     29 C         142.3723  137.9932  163.7843 C.ar    1  UNL1        0.1401
     30 F         141.3334  136.9113  163.7944 F       1  UNL1       -0.2042
     31 C         143.1154  138.3077  162.5198 C.ar    1  UNL1        0.0294
     32 C         144.1542  139.3896  162.5096 C.ar    1  UNL1       -0.0006
@<TRIPOS>BOND
     1    10    11    1
     2    11    12   ar
     3    12    13   ar
     4    13     8    1
     5     8     1    1
     6     1    19    1
     7    19    20    1
     8    20    21    1
     9    21    22    1
    10    22    23    1
    11    23    25    1
    12    25    26    1
    13    26    27   ar
    14    27    28   ar
    15    28    29   ar
    16    29    30    1
    17    29    31   ar
    18    31    32   ar
    19     1     2    1
    20     2     3    2
    21     2     4   am
    22     4     5    1
    23    13    14   ar
    24    14    15   ar
    25    15    16    1
    26    15    17   ar
    27    17    18    1
    28    17    11   ar
    29    32    26   ar
    30     8     9    1
    31    23    24    1
    32     4     6    1
    33     5     7    1
@<TRIPOS>MOLECULE
*****
 32 33 0 0 0
SMALL
GASTEIGER

@<TRIPOS>ATOM
      1 C         142.7732  144.3903  163.6829 C.3     1  UNL1        0.1486
      2 C         142.8046  144.4320  162.1837 C.2     1  UNL1        0.2621
      3 O         143.8085  143.6096  161.4315 O.2     1  UNL1       -0.2713
      4 N         141.8322  145.2961  161.4369 N.am    1  UNL1       -0.1956
      5 O         141.8636  145.3378  159.9379 O.3     1  UNL1       -0.2951
      6 H         141.1734  145.8359  161.9307 H       1  UNL1        0.1823
      7 H         142.5661  144.7531  159.6128 H       1  UNL1        0.2414
      8 N         141.4766  144.5849  164.4115 N.pl3   1  UNL1       -0.3269
      9 H         141.2214  145.4801  164.7318 H       1  UNL1        0.1472
     10 C         137.2597  141.8260  163.1438 C.3     1  UNL1        0.0334
     11 C         138.4602  142.0359  164.0183 C.ar    1  UNL1        0.0065
     12 C         139.3681  143.2054  163.7777 C.ar    1  UNL1        0.0122
     13 C         140.5687  143.4152  164.6521 C.ar    1  UNL1        0.0444
     14 C         140.8613  142.4556  165.7672 C.ar    1  UNL1        0.0122
     15 C         139.9534  141.2861  166.0077 C.ar    1  UNL1        0.0065
     16 C         140.2461  140.3263  167.1228 C.3     1  UNL1        0.0334
     17 C         138.7529  141.0762  165.1333 C.ar    1  UNL1        0.1322
     18 F         137.8450  139.9066  165.3739 F       1  UNL1       -0.2048
     19 C         144.0383  144.1541  164.4533 C.3     1  UNL1        0.0290
     20 C         144.4104  142.7639  164.8763 C.3     1  UNL1        0.0036
     21 C         145.4127  141.9809  164.0810 C.3     1  UNL1        0.0172
     22 C         144.9522  140.8907  163.1595 C.3     1  UNL1        0.0688
     23 N         143.4878  140.6992  162.8970 N.3     1  UNL1       -0.2937
     24 H         143.3979  140.4198  161.9201 H       1  UNL1        0.1236
     25 C         142.7044  139.7075  163.7049 C.3     1  UNL1        0.0956
     26 C         141.3644  139.2378  163.2215 C.ar    1  UNL1       -0.0062
     27 C         140.6478  138.1387  163.9483 C.ar    1  UNL1       -0.0006
     28 C         139.3077  137.6691  163.4649 C.ar    1  UNL1        0.0294
     29 C         138.6842  138.2986  162.2546 C.ar    1  UNL1        0.1401
     30 F         137.3442  137.8290  161.7712 F       1  UNL1       -0.2042
     31 C         139.4008  139.3978  161.5277 C.ar    1  UNL1        0.0294
     32 C         140.7408  139.8674  162.0111 C.ar    1  UNL1       -0.0006
@<TRIPOS>BOND
     1    10    11    1
     2    11    12   ar
     3    12    13   ar
     4    13     8    1
     5     8     1    1
     6     1    19    1
     7    19    20    1
     8    20    21    1
     9    21    22    1
    10    22    23    1
    11    23    25    1
    12    25    26    1
    13    26    27   ar
    14    27    28   ar
    15    28    29   ar
    16    29    30    1
    17    29    31   ar
    18    31    32   ar
    19     1     2    1
    20     2     3    2
    21     2     4   am
    22     4     5    1
    23    13    14   ar
    24    14    15   ar
    25    15    16    1
    26    15    17   ar
    27    17    18    1
    28    17    11   ar
    29    32    26   ar
    30     8     9    1
    31    23    24    1
    32     4     6    1
    33     5     7    1
@<TRIPOS>MOLECULE
*****
 32 33 0 0 0
SMALL
GASTEIGER

@<TRIPOS>ATOM
      1 C         137.7056  142.2226  163.9555 C.3     1  UNL1        0.1486
      2 C         137.5591  141.8265  162.5161 C.2     1  UNL1        0.2621
      3 O         137.7234  142.8535  161.4352 O.2     1  UNL1       -0.2713
      4 N         137.2483  140.4035  162.1576 N.am    1  UNL1       -0.1956
      5 O         137.1018  140.0075  160.7184 O.3     1  UNL1       -0.2951
      6 H         137.1405  139.7295  162.8671 H       1  UNL1        0.1823
      7 H         137.2374  140.7845  160.1538 H       1  UNL1        0.2414
      8 N         137.7452  141.1694  165.0228 N.pl3   1  UNL1       -0.3269
      9 H         136.9163  140.9027  165.4822 H       1  UNL1        0.1472
     10 C         141.1250  137.2547  164.5202 C.3     1  UNL1        0.0334
     11 C         140.7376  138.5651  165.1389 C.ar    1  UNL1        0.0065
     12 C         139.4351  139.2120  164.7715 C.ar    1  UNL1        0.0122
     13 C         139.0477  140.5224  165.3902 C.ar    1  UNL1        0.0444
     14 C         139.9628  141.1859  166.3763 C.ar    1  UNL1        0.0122
     15 C         141.2653  140.5390  166.7436 C.ar    1  UNL1        0.0065
     16 C         142.1805  141.2025  167.7297 C.3     1  UNL1        0.0334
     17 C         141.6527  139.2286  166.1250 C.ar    1  UNL1        0.1322
     18 F         142.9552  138.5817  166.4924 F       1  UNL1       -0.2048
     19 C         137.8126  143.6717  164.3274 C.3     1  UNL1        0.0290
     20 C         138.9765  144.4859  163.8452 C.3     1  UNL1        0.0036
     21 C         140.3563  144.1997  164.3592 C.3     1  UNL1        0.0172
     22 C         141.5311  144.9581  163.8163 C.3     1  UNL1        0.0688
     23 N         142.9107  144.3785  163.9199 N.3     1  UNL1       -0.2937
     24 H         143.5104  145.1116  164.2986 H       1  UNL1        0.1236
     25 C         143.1487  143.1524  164.7505 C.3     1  UNL1        0.0956
     26 C         143.3452  141.8224  164.0854 C.ar    1  UNL1       -0.0062
     27 C         142.3923  141.3687  163.0195 C.ar    1  UNL1       -0.0006
     28 C         142.5889  140.0387  162.3543 C.ar    1  UNL1        0.0294
     29 C         143.7384  139.1624  162.7550 C.ar    1  UNL1        0.1401
     30 F         143.9349  137.8324  162.0898 F       1  UNL1       -0.2042
     31 C         144.6914  139.6160  163.8209 C.ar    1  UNL1        0.0294
     32 C         144.4948  140.9460  164.4860 C.ar    1  UNL1       -0.0006
@<TRIPOS>BOND
     1    10    11    1
     2    11    12   ar
     3    12    13   ar
     4    13     8    1
     5     8     1    1
     6     1    19    1
     7    19    20    1
     8    20    21    1
     9    21    22    1
    10    22    23    1
    11    23    25    1
    12    25    26    1
    13    26    27   ar
    14    27    28   ar
    15    28    29   ar
    16    29    30    1
    17    29    31   ar
    18    31    32   ar
    19     1     2    1
    20     2     3    2
    21     2     4   am
    22     4     5    1
    23    13    14   ar
    24    14    15   ar
    25    15    16    1
    26    15    17   ar
    27    17    18    1
    28    17    11   ar
    29    32    26   ar
    30     8     9    1
    31    23    24    1
    32     4     6    1
    33     5     7    1
@<TRIPOS>MOLECULE
*****
 32 33 0 0 0
SMALL
GASTEIGER

@<TRIPOS>ATOM
      1 C         141.0168  144.1791  163.0633 C.3     1  UNL1        0.1486
      2 C         139.9544  144.8152  162.2166 C.2     1  UNL1        0.2621
      3 O         138.7788  144.0060  161.7550 O.2     1  UNL1       -0.2713
      4 N         140.0677  146.2605  161.8315 N.am    1  UNL1       -0.1956
      5 O         139.0054  146.8966  160.9848 O.3     1  UNL1       -0.2951
      6 H         140.8393  146.7916  162.1345 H       1  UNL1        0.1823
      7 H         138.3227  146.2401  160.7754 H       1  UNL1        0.2414
      8 N         141.1333  142.6848  163.1231 N.pl3   1  UNL1       -0.3269
      9 H         141.3930  142.1788  162.3196 H       1  UNL1        0.1472
     10 C         138.2057  139.4100  165.8989 C.3     1  UNL1        0.0334
     11 C         139.3904  140.3242  165.7952 C.ar    1  UNL1        0.0065
     12 C         139.6695  141.0474  164.5111 C.ar    1  UNL1        0.0122
     13 C         140.8542  141.9616  164.4074 C.ar    1  UNL1        0.0444
     14 C         141.7598  142.1527  165.5878 C.ar    1  UNL1        0.0122
     15 C         141.4806  141.4295  166.8719 C.ar    1  UNL1        0.0065
     16 C         142.3862  141.6205  168.0525 C.3     1  UNL1        0.0334
     17 C         140.2959  140.5153  166.9756 C.ar    1  UNL1        0.1322
     18 F         140.0168  139.7921  168.2598 F       1  UNL1       -0.2048
     19 C         141.9625  145.0373  163.8501 C.3     1  UNL1        0.0290
     20 C         143.4126  145.0976  163.4711 C.3     1  UNL1        0.0036
     21 C         144.3047  143.9195  163.7286 C.3     1  UNL1        0.0172
     22 C         144.7538  143.0552  162.5878 C.3     1  UNL1        0.0688
     23 N         144.0109  141.7925  162.2658 N.3     1  UNL1       -0.2937
     24 H         144.0422  141.6828  161.2522 H       1  UNL1        0.1236
     25 C         144.4577  140.4881  162.8565 C.3     1  UNL1        0.0956
     26 C         143.4442  139.5224  163.3950 C.ar    1  UNL1       -0.0062
     27 C         143.5118  139.0858  164.8284 C.ar    1  UNL1       -0.0006
     28 C         142.4981  138.1200  165.3669 C.ar    1  UNL1        0.0294
     29 C         141.4170  137.5908  164.4719 C.ar    1  UNL1        0.1401
     30 F         140.4035  136.6250  165.0103 F       1  UNL1       -0.2042
     31 C         141.3494  138.0274  163.0384 C.ar    1  UNL1        0.0294
     32 C         142.3630  138.9931  162.5000 C.ar    1  UNL1       -0.0006
@<TRIPOS>BOND
     1    10    11    1
     2    11    12   ar
     3    12    13   ar
     4    13     8    1
     5     8     1    1
     6     1    19    1
     7    19    20    1
     8    20    21    1
     9    21    22    1
    10    22    23    1
    11    23    25    1
    12    25    26    1
    13    26    27   ar
    14    27    28   ar
    15    28    29   ar
    16    29    30    1
    17    29    31   ar
    18    31    32   ar
    19     1     2    1
    20     2     3    2
    21     2     4   am
    22     4     5    1
    23    13    14   ar
    24    14    15   ar
    25    15    16    1
    26    15    17   ar
    27    17    18    1
    28    17    11   ar
    29    32    26   ar
    30     8     9    1
    31    23    24    1
    32     4     6    1
    33     5     7    1
@<TRIPOS>MOLECULE
*****
 32 33 0 0 0
SMALL
GASTEIGER

@<TRIPOS>ATOM
      1 C         140.4439  144.1061  164.6643 C.3     1  UNL1        0.1486
      2 C         141.3762  144.4160  163.5307 C.2     1  UNL1        0.2621
      3 O         140.9679  144.1128  162.1196 O.2     1  UNL1       -0.2713
      4 N         142.7167  145.0292  163.8084 N.am    1  UNL1       -0.1956
      5 O         143.6490  145.3391  162.6749 O.3     1  UNL1       -0.2951
      6 H         142.9846  145.2282  164.7346 H       1  UNL1        0.1823
      7 H         143.2344  145.0833  161.8361 H       1  UNL1        0.2414
      8 N         140.8987  143.2252  165.7900 N.pl3   1  UNL1       -0.3269
      9 H         141.1720  143.6241  166.6476 H       1  UNL1        0.1472
     10 C         138.4729  138.6301  165.7723 C.3     1  UNL1        0.0334
     11 C         139.7243  139.4391  165.6002 C.ar    1  UNL1        0.0065
     12 C         139.6859  140.9276  165.7811 C.ar    1  UNL1        0.0122
     13 C         140.9372  141.7366  165.6090 C.ar    1  UNL1        0.0444
     14 C         142.2270  141.0571  165.2559 C.ar    1  UNL1        0.0122
     15 C         142.2654  139.5686  165.0749 C.ar    1  UNL1        0.0065
     16 C         143.5552  138.8890  164.7218 C.3     1  UNL1        0.0334
     17 C         141.0140  138.7596  165.2470 C.ar    1  UNL1        0.1322
     18 F         141.0525  137.2710  165.0660 F       1  UNL1       -0.2048
     19 C         139.0569  144.6770  164.6721 C.3     1  UNL1        0.0290
     20 C         137.8742  143.7771  164.4688 C.3     1  UNL1        0.0036
     21 C         137.7361  142.9962  163.1955 C.3     1  UNL1        0.0172
     22 C         137.1183  141.6294  163.2172 C.3     1  UNL1        0.0688
     23 N         137.3094  140.7015  162.0544 N.3     1  UNL1       -0.2937
     24 H         137.7949  141.2320  161.3310 H       1  UNL1        0.1236
     25 C         138.0680  139.4200  162.2343 C.3     1  UNL1        0.0956
     26 C         139.5384  139.3715  161.9420 C.ar    1  UNL1       -0.0062
     27 C         140.3333  140.6421  161.8812 C.ar    1  UNL1       -0.0006
     28 C         141.8038  140.5935  161.5889 C.ar    1  UNL1        0.0294
     29 C         142.4793  139.2744  161.3575 C.ar    1  UNL1        0.1401
     30 F         143.9497  139.2259  161.0653 F       1  UNL1       -0.2042
     31 C         141.6844  138.0038  161.4184 C.ar    1  UNL1        0.0294
     32 C         140.2140  138.0523  161.7106 C.ar    1  UNL1       -0.0006
@<TRIPOS>BOND
     1    10    11    1
     2    11    12   ar
     3    12    13   ar
     4    13     8    1
     5     8     1    1
     6     1    19    1
     7    19    20    1
     8    20    21    1
     9    21    22    1
    10    22    23    1
    11    23    25    1
    12    25    26    1
    13    26    27   ar
    14    27    28   ar
    15    28    29   ar
    16    29    30    1
    17    29    31   ar
    18    31    32   ar
    19     1     2    1
    20     2     3    2
    21     2     4   am
    22     4     5    1
    23    13    14   ar
    24    14    15   ar
    25    15    16    1
    26    15    17   ar
    27    17    18    1
    28    17    11   ar
    29    32    26   ar
    30     8     9    1
    31    23    24    1
    32     4     6    1
    33     5     7    1
@<TRIPOS>MOLECULE
*****
 32 33 0 0 0
SMALL
GASTEIGER

@<TRIPOS>ATOM
      1 C         138.6221  143.0337  162.2717 C.3     1  UNL1        0.1486
      2 C         139.5948  144.1728  162.1919 C.2     1  UNL1        0.2621
      3 O         141.0694  143.8995  162.1670 O.2     1  UNL1       -0.2713
      4 N         139.0927  145.5852  162.1369 N.am    1  UNL1       -0.1956
      5 O         140.0653  146.7243  162.0571 O.3     1  UNL1       -0.2951
      6 H         138.1248  145.7646  162.1532 H       1  UNL1        0.1823
      7 H         140.9708  146.3765  162.0505 H       1  UNL1        0.2414
      8 N         137.8508  142.7932  163.5355 N.pl3   1  UNL1       -0.3269
      9 H         136.9414  143.1571  163.6340 H       1  UNL1        0.1472
     10 C         141.3414  142.3586  167.3601 C.3     1  UNL1        0.0334
     11 C         140.2106  141.7810  166.5616 C.ar    1  UNL1        0.0065
     12 C         139.5961  142.5759  165.4479 C.ar    1  UNL1        0.0122
     13 C         138.4653  141.9982  164.6494 C.ar    1  UNL1        0.0444
     14 C         137.9489  140.6257  164.9647 C.ar    1  UNL1        0.0122
     15 C         138.5633  139.8308  166.0785 C.ar    1  UNL1        0.0065
     16 C         138.0470  138.4582  166.3938 C.3     1  UNL1        0.0334
     17 C         139.6942  140.4084  166.8769 C.ar    1  UNL1        0.1322
     18 F         140.3086  139.6135  167.9908 F       1  UNL1       -0.2048
     19 C         138.4207  142.1351  161.0877 C.3     1  UNL1        0.0290
     20 C         137.7475  140.8058  161.2608 C.3     1  UNL1        0.0036
     21 C         137.9265  139.7341  160.2266 C.3     1  UNL1        0.0172
     22 C         139.1856  138.9193  160.2011 C.3     1  UNL1        0.0688
     23 N         139.3029  137.6930  161.0568 N.3     1  UNL1       -0.2937
     24 H         140.2016  137.2643  160.8353 H       1  UNL1        0.1236
     25 C         139.2362  137.8116  162.5506 C.3     1  UNL1        0.0956
     26 C         140.3969  138.3822  163.3103 C.ar    1  UNL1       -0.0062
     27 C         140.9141  139.7495  162.9739 C.ar    1  UNL1       -0.0006
     28 C         142.0749  140.3201  163.7336 C.ar    1  UNL1        0.0294
     29 C         142.7183  139.5235  164.8296 C.ar    1  UNL1        0.1401
     30 F         143.8790  140.0941  165.5893 F       1  UNL1       -0.2042
     31 C         142.2011  138.1563  165.1660 C.ar    1  UNL1        0.0294
     32 C         141.0404  137.5856  164.4064 C.ar    1  UNL1       -0.0006
@<TRIPOS>BOND
     1    10    11    1
     2    11    12   ar
     3    12    13   ar
     4    13     8    1
     5     8     1    1
     6     1    19    1
     7    19    20    1
     8    20    21    1
     9    21    22    1
    10    22    23    1
    11    23    25    1
    12    25    26    1
    13    26    27   ar
    14    27    28   ar
    15    28    29   ar
    16    29    30    1
    17    29    31   ar
    18    31    32   ar
    19     1     2    1
    20     2     3    2
    21     2     4   am
    22     4     5    1
    23    13    14   ar
    24    14    15   ar
    25    15    16    1
    26    15    17   ar
    27    17    18    1
    28    17    11   ar
    29    32    26   ar
    30     8     9    1
    31    23    24    1
    32     4     6    1
    33     5     7    1
@<TRIPOS>MOLECULE
*****
 32 33 0 0 0
SMALL
GASTEIGER

@<TRIPOS>ATOM
      1 C         138.7528  142.4923  162.0801 C.3     1  UNL1        0.1486
      2 C         139.3888  143.7252  161.5093 C.2     1  UNL1        0.2621
      3 O         139.3737  143.9597  160.0279 O.2     1  UNL1       -0.2713
      4 N         140.0398  144.7235  162.4201 N.am    1  UNL1       -0.1956
      5 O         140.6758  145.9563  161.8494 O.3     1  UNL1       -0.2951
      6 H         140.0497  144.5695  163.3924 H       1  UNL1        0.1823
      7 H         140.5784  145.9532  160.8844 H       1  UNL1        0.2414
      8 N         138.0195  142.5630  163.3867 N.pl3   1  UNL1       -0.3269
      9 H         137.1901  143.0886  163.4579 H       1  UNL1        0.1472
     10 C         138.1949  138.2905  166.3389 C.3     1  UNL1        0.0334
     11 C         138.6376  139.6965  166.0609 C.ar    1  UNL1        0.0065
     12 C         138.1072  140.4268  164.8629 C.ar    1  UNL1        0.0122
     13 C         138.5499  141.8327  164.5848 C.ar    1  UNL1        0.0444
     14 C         139.5230  142.5084  165.5049 C.ar    1  UNL1        0.0122
     15 C         140.0533  141.7782  166.7029 C.ar    1  UNL1        0.0065
     16 C         141.0264  142.4539  167.6231 C.3     1  UNL1        0.0334
     17 C         139.6106  140.3722  166.9810 C.ar    1  UNL1        0.1322
     18 F         140.1410  139.6420  168.1791 F       1  UNL1       -0.2048
     19 C         138.8501  141.1889  161.3442 C.3     1  UNL1        0.0290
     20 C         137.6285  140.3379  161.1612 C.3     1  UNL1        0.0036
     21 C         137.7501  138.8427  161.1553 C.3     1  UNL1        0.0172
     22 C         138.3993  138.1385  162.3097 C.3     1  UNL1        0.0688
     23 N         139.7602  137.5291  162.1471 N.3     1  UNL1       -0.2937
     24 H         140.2924  138.1543  161.5418 H       1  UNL1        0.1236
     25 C         140.6124  137.2645  163.3528 C.3     1  UNL1        0.0956
     26 C         141.4261  138.3720  163.9537 C.ar    1  UNL1       -0.0062
     27 C         141.5159  139.6986  163.2594 C.ar    1  UNL1       -0.0006
     28 C         142.3297  140.8062  163.8604 C.ar    1  UNL1        0.0294
     29 C         143.0537  140.5871  165.1557 C.ar    1  UNL1        0.1401
     30 F         143.8674  141.6946  165.7567 F       1  UNL1       -0.2042
     31 C         142.9639  139.2605  165.8501 C.ar    1  UNL1        0.0294
     32 C         142.1501  138.1530  165.2491 C.ar    1  UNL1       -0.0006
@<TRIPOS>BOND
     1    10    11    1
     2    11    12   ar
     3    12    13   ar
     4    13     8    1
     5     8     1    1
     6     1    19    1
     7    19    20    1
     8    20    21    1
     9    21    22    1
    10    22    23    1
    11    23    25    1
    12    25    26    1
    13    26    27   ar
    14    27    28   ar
    15    28    29   ar
    16    29    30    1
    17    29    31   ar
    18    31    32   ar
    19     1     2    1
    20     2     3    2
    21     2     4   am
    22     4     5    1
    23    13    14   ar
    24    14    15   ar
    25    15    16    1
    26    15    17   ar
    27    17    18    1
    28    17    11   ar
    29    32    26   ar
    30     8     9    1
    31    23    24    1
    32     4     6    1
    33     5     7    1
