@<TRIPOS>MOLECULE
*****
 33 37 0 0 0
SMALL
GASTEIGER

@<TRIPOS>ATOM
      1 C         139.5584  139.5866  160.1220 C.3     1  UNL1        0.2052
      2 C         139.8971  138.3971  159.2732 C.3     1  UNL1        0.1391
      3 N         141.2431  138.9903  158.9790 N.am    1  UNL1       -0.2647
      4 C         142.4342  138.5686  158.1707 C.2     1  UNL1        0.3047
      5 O         143.6467  139.4495  158.1062 O.2     1  UNL1       -0.2647
      6 C         140.9044  140.1798  159.8277 C.3     1  UNL1        0.1391
      7 C         142.4130  137.2662  157.4270 C.ar    1  UNL1        0.3043
      8 N         141.4697  136.8981  156.3204 N.ar    1  UNL1       -0.1021
      9 N         141.8051  135.5075  155.8689 N.ar    1  UNL1       -0.1068
     10 C         142.9557  135.0163  156.6964 C.ar    1  UNL1        0.2501
     11 O         143.3314  136.1032  157.6594 O.2     1  UNL1       -0.4122
     12 C         143.6147  133.6738  156.5812 C.ar    1  UNL1        0.0551
     13 C         143.4137  132.8429  155.3486 C.ar    1  UNL1        0.0047
     14 C         144.0727  131.5004  155.2333 C.ar    1  UNL1        0.0002
     15 C         144.9329  130.9887  156.3505 C.ar    1  UNL1        0.0000
     16 C         145.1340  131.8196  157.5831 C.ar    1  UNL1        0.0002
     17 C         144.4750  133.1621  157.6985 C.ar    1  UNL1        0.0047
     18 O         138.3673  140.0083  160.9302 O.3     1  UNL1       -0.4756
     19 C         138.4123  139.5579  165.4074 C.ar    1  UNL1        0.0216
     20 C         138.0471  140.8752  164.7897 C.ar    1  UNL1        0.0024
     21 C         138.0321  141.0253  163.2974 C.ar    1  UNL1        0.0368
     22 C         138.3823  139.8581  162.4226 C.ar    1  UNL1        0.1408
     23 C         138.7474  138.5409  163.0403 C.ar    1  UNL1        0.0662
     24 C         138.7624  138.3908  164.5327 C.ar    1  UNL1        0.1405
     25 F         139.1276  137.0735  165.1503 F       1  UNL1       -0.2044
     26 C         138.4273  139.4078  166.8998 C.3     1  UNL1        0.1015
     27 C         143.2224  141.1734  170.0446 C.3     1  UNL1        0.0897
     28 N         142.0236  140.7320  169.2584 N.3     1  UNL1       -0.2691
     29 C         140.6683  140.7195  169.9010 C.3     1  UNL1        0.0897
     30 C         139.4695  140.2781  169.1148 C.3     1  UNL1        0.0899
     31 N         139.6260  139.8492  167.6860 N.3     1  UNL1       -0.2665
     32 C         140.9813  139.8617  167.0434 C.3     1  UNL1        0.0899
     33 C         142.1801  140.3031  167.8296 C.3     1  UNL1        0.0897
@<TRIPOS>BOND
     1    27    28    1
     2    28    29    1
     3    29    30    1
     4    30    31    1
     5    31    26    1
     6    26    19    1
     7    19    20   ar
     8    20    21   ar
     9    21    22   ar
    10    22    18    1
    11    18     1    1
    12     1     2    1
    13     2     3    1
    14     3     4   am
    15     4     5    2
    16     4     7    1
    17     7     8   ar
    18     8     9   ar
    19     9    10   ar
    20    10    12    1
    21    12    13   ar
    22    13    14   ar
    23    14    15   ar
    24    15    16   ar
    25    16    17   ar
    26    10    11   ar
    27     3     6    1
    28    22    23   ar
    29    23    24   ar
    30    24    25    1
    31    31    32    1
    32    32    33    1
    33    33    28    1
    34    24    19   ar
    35     6     1    1
    36    11     7   ar
    37    17    12   ar
@<TRIPOS>MOLECULE
*****
 33 37 0 0 0
SMALL
GASTEIGER

@<TRIPOS>ATOM
      1 C         139.5443  139.6835  160.2702 C.3     1  UNL1        0.2052
      2 C         140.2376  138.7028  159.3715 C.3     1  UNL1        0.1391
      3 N         141.3249  139.7044  159.1175 N.am    1  UNL1       -0.2647
      4 C         142.5840  139.7192  158.3024 C.2     1  UNL1        0.3047
      5 O         143.4549  140.9405  158.2897 O.2     1  UNL1       -0.2647
      6 C         140.6316  140.6850  160.0162 C.3     1  UNL1        0.1391
      7 C         142.9723  138.5128  157.5001 C.ar    1  UNL1        0.3043
      8 N         143.9617  138.4847  156.3729 N.ar    1  UNL1       -0.1021
      9 N         144.0402  137.0772  155.8603 N.ar    1  UNL1       -0.1068
     10 C         143.0995  136.2355  156.6706 C.ar    1  UNL1        0.2501
     11 O         142.4395  137.1228  157.6840 O.2     1  UNL1       -0.4122
     12 C         142.8607  134.7648  156.4977 C.ar    1  UNL1        0.0551
     13 C         143.6859  133.7756  157.2661 C.ar    1  UNL1        0.0047
     14 C         143.4471  132.3048  157.0932 C.ar    1  UNL1        0.0002
     15 C         142.3832  131.8233  156.1520 C.ar    1  UNL1        0.0000
     16 C         141.5579  132.8125  155.3835 C.ar    1  UNL1        0.0002
     17 C         141.7966  134.2832  155.5564 C.ar    1  UNL1        0.0047
     18 O         138.2852  139.6686  161.0853 O.3     1  UNL1       -0.4756
     19 C         138.5123  139.4075  165.5721 C.ar    1  UNL1        0.0216
     20 C         138.1178  140.6969  164.9148 C.ar    1  UNL1        0.0024
     21 C         138.0421  140.7839  163.4193 C.ar    1  UNL1        0.0368
     22 C         138.3609  139.5816  162.5809 C.ar    1  UNL1        0.1408
     23 C         138.7554  138.2923  163.2382 C.ar    1  UNL1        0.0662
     24 C         138.8311  138.2052  164.7338 C.ar    1  UNL1        0.1405
     25 F         139.2255  136.9159  165.3910 F       1  UNL1       -0.2044
     26 C         138.5879  139.3205  167.0676 C.3     1  UNL1        0.1015
     27 C         143.3351  141.5693  169.9672 C.3     1  UNL1        0.0897
     28 N         142.1483  141.0071  169.2423 N.3     1  UNL1       -0.2691
     29 C         142.3202  140.3948  167.8838 C.3     1  UNL1        0.0897
     30 C         141.1334  139.8326  167.1589 C.3     1  UNL1        0.0899
     31 N         139.7747  139.8827  167.7925 N.3     1  UNL1       -0.2665
     32 C         139.6028  140.4951  169.1510 C.3     1  UNL1        0.0899
     33 C         140.7896  141.0573  169.8759 C.3     1  UNL1        0.0897
@<TRIPOS>BOND
     1    27    28    1
     2    28    29    1
     3    29    30    1
     4    30    31    1
     5    31    26    1
     6    26    19    1
     7    19    20   ar
     8    20    21   ar
     9    21    22   ar
    10    22    18    1
    11    18     1    1
    12     1     2    1
    13     2     3    1
    14     3     4   am
    15     4     5    2
    16     4     7    1
    17     7     8   ar
    18     8     9   ar
    19     9    10   ar
    20    10    12    1
    21    12    13   ar
    22    13    14   ar
    23    14    15   ar
    24    15    16   ar
    25    16    17   ar
    26    10    11   ar
    27     3     6    1
    28    22    23   ar
    29    23    24   ar
    30    24    25    1
    31    31    32    1
    32    32    33    1
    33    33    28    1
    34    24    19   ar
    35     6     1    1
    36    11     7   ar
    37    17    12   ar
@<TRIPOS>MOLECULE
*****
 33 37 0 0 0
SMALL
GASTEIGER

@<TRIPOS>ATOM
      1 C         139.6873  139.0798  159.7057 C.3     1  UNL1        0.2052
      2 C         140.2238  138.0233  158.7859 C.3     1  UNL1        0.1391
      3 N         141.4898  138.8106  158.6201 N.am    1  UNL1       -0.2647
      4 C         142.7644  138.6203  157.8525 C.2     1  UNL1        0.3047
      5 O         143.8484  139.6542  157.9304 O.2     1  UNL1       -0.2647
      6 C         140.9533  139.8670  159.5400 C.3     1  UNL1        0.1391
      7 C         142.9550  137.3961  157.0069 C.ar    1  UNL1        0.3043
      8 N         142.8247  137.3267  155.5141 N.ar    1  UNL1       -0.1021
      9 N         143.0985  135.9141  155.0903 N.ar    1  UNL1       -0.1068
     10 C         143.3980  135.1106  156.3210 C.ar    1  UNL1        0.2501
     11 O         143.3093  136.0266  157.5055 O.2     1  UNL1       -0.4122
     12 C         143.7282  133.6480  156.3603 C.ar    1  UNL1        0.0551
     13 C         144.4143  133.0659  157.5605 C.ar    1  UNL1        0.0047
     14 C         144.7445  131.6032  157.5998 C.ar    1  UNL1        0.0002
     15 C         144.3887  130.7226  156.4388 C.ar    1  UNL1        0.0000
     16 C         143.7026  131.3046  155.2386 C.ar    1  UNL1        0.0002
     17 C         143.3723  132.7673  155.1993 C.ar    1  UNL1        0.0047
     18 O         138.4128  139.2701  160.4734 O.3     1  UNL1       -0.4756
     19 C         138.4569  139.1549  164.9717 C.ar    1  UNL1        0.0216
     20 C         138.7831  137.9191  164.1866 C.ar    1  UNL1        0.0024
     21 C         138.7684  137.9575  162.6872 C.ar    1  UNL1        0.0368
     22 C         138.4275  139.2317  161.9729 C.ar    1  UNL1        0.1408
     23 C         138.1012  140.4674  162.7580 C.ar    1  UNL1        0.0662
     24 C         138.1159  140.4290  164.2574 C.ar    1  UNL1        0.1405
     25 F         137.7896  141.6648  165.0425 F       1  UNL1       -0.2044
     26 C         138.4716  139.1164  166.4712 C.3     1  UNL1        0.1015
     27 C         143.1387  141.3828  169.4847 C.3     1  UNL1        0.0897
     28 N         141.9719  140.8162  168.7313 N.3     1  UNL1       -0.2691
     29 C         140.6220  140.7459  169.3815 C.3     1  UNL1        0.0897
     30 C         139.4553  140.1793  168.6281 C.3     1  UNL1        0.0899
     31 N         139.6383  139.6830  167.2245 N.3     1  UNL1       -0.2665
     32 C         140.9882  139.7534  166.5743 C.3     1  UNL1        0.0899
     33 C         142.1550  140.3200  167.3277 C.3     1  UNL1        0.0897
@<TRIPOS>BOND
     1    27    28    1
     2    28    29    1
     3    29    30    1
     4    30    31    1
     5    31    26    1
     6    26    19    1
     7    19    20   ar
     8    20    21   ar
     9    21    22   ar
    10    22    18    1
    11    18     1    1
    12     1     2    1
    13     2     3    1
    14     3     4   am
    15     4     5    2
    16     4     7    1
    17     7     8   ar
    18     8     9   ar
    19     9    10   ar
    20    10    12    1
    21    12    13   ar
    22    13    14   ar
    23    14    15   ar
    24    15    16   ar
    25    16    17   ar
    26    10    11   ar
    27     3     6    1
    28    22    23   ar
    29    23    24   ar
    30    24    25    1
    31    31    32    1
    32    32    33    1
    33    33    28    1
    34    24    19   ar
    35     6     1    1
    36    11     7   ar
    37    17    12   ar
@<TRIPOS>MOLECULE
*****
 33 37 0 0 0
SMALL
GASTEIGER

@<TRIPOS>ATOM
      1 C         139.6307  139.4573  158.8447 C.3     1  UNL1        0.2052
      2 C         139.9295  138.0899  158.3053 C.3     1  UNL1        0.1391
      3 N         141.2720  138.5680  157.8371 N.am    1  UNL1       -0.2647
      4 C         142.4325  137.9392  157.1246 C.2     1  UNL1        0.3047
      5 O         143.6519  138.7550  156.8119 O.2     1  UNL1       -0.2647
      6 C         140.9731  139.9354  158.3764 C.3     1  UNL1        0.1391
      7 C         142.3738  136.4947  156.7248 C.ar    1  UNL1        0.3043
      8 N         141.5060  135.9123  155.6488 N.ar    1  UNL1       -0.1021
      9 N         141.7684  134.4366  155.5898 N.ar    1  UNL1       -0.1068
     10 C         142.7984  134.1070  156.6293 C.ar    1  UNL1        0.2501
     11 O         143.1725  135.3790  157.3308 O.2     1  UNL1       -0.4122
     12 C         143.3562  132.7447  156.9169 C.ar    1  UNL1        0.0551
     13 C         142.6503  131.5226  156.4087 C.ar    1  UNL1        0.0047
     14 C         143.2080  130.1601  156.6962 C.ar    1  UNL1        0.0002
     15 C         144.4718  130.0197  157.4919 C.ar    1  UNL1        0.0000
     16 C         145.1777  131.2418  158.0001 C.ar    1  UNL1        0.0002
     17 C         144.6200  132.6042  157.7126 C.ar    1  UNL1        0.0047
     18 O         138.4701  140.0861  159.5571 O.3     1  UNL1       -0.4756
     19 C         138.2343  139.9294  164.0483 C.ar    1  UNL1        0.0216
     20 C         138.7916  138.7643  163.2854 C.ar    1  UNL1        0.0024
     21 C         138.8702  138.8166  161.7884 C.ar    1  UNL1        0.0368
     22 C         138.3915  140.0339  161.0542 C.ar    1  UNL1        0.1408
     23 C         137.8341  141.1989  161.8171 C.ar    1  UNL1        0.0662
     24 C         137.7555  141.1467  163.3141 C.ar    1  UNL1        0.1405
     25 F         137.1982  142.3118  164.0770 F       1  UNL1       -0.2044
     26 C         138.1557  139.8772  165.5453 C.3     1  UNL1        0.1015
     27 C         142.5163  142.3188  168.8655 C.3     1  UNL1        0.0897
     28 N         141.4262  141.7084  168.0354 N.3     1  UNL1       -0.2691
     29 C         141.1282  142.2539  166.6703 C.3     1  UNL1        0.0897
     30 C         140.0380  141.6435  165.8403 C.3     1  UNL1        0.0899
     31 N         139.2458  140.4876  166.3753 N.3     1  UNL1       -0.2665
     32 C         139.5438  139.9421  167.7405 C.3     1  UNL1        0.0899
     33 C         140.6340  140.5525  168.5705 C.3     1  UNL1        0.0897
@<TRIPOS>BOND
     1    27    28    1
     2    28    29    1
     3    29    30    1
     4    30    31    1
     5    31    26    1
     6    26    19    1
     7    19    20   ar
     8    20    21   ar
     9    21    22   ar
    10    22    18    1
    11    18     1    1
    12     1     2    1
    13     2     3    1
    14     3     4   am
    15     4     5    2
    16     4     7    1
    17     7     8   ar
    18     8     9   ar
    19     9    10   ar
    20    10    12    1
    21    12    13   ar
    22    13    14   ar
    23    14    15   ar
    24    15    16   ar
    25    16    17   ar
    26    10    11   ar
    27     3     6    1
    28    22    23   ar
    29    23    24   ar
    30    24    25    1
    31    31    32    1
    32    32    33    1
    33    33    28    1
    34    24    19   ar
    35     6     1    1
    36    11     7   ar
    37    17    12   ar
@<TRIPOS>MOLECULE
*****
 33 37 0 0 0
SMALL
GASTEIGER

@<TRIPOS>ATOM
      1 C         141.1384  138.6965  157.8746 C.3     1  UNL1        0.2052
      2 C         141.1982  137.3704  157.1762 C.3     1  UNL1        0.1391
      3 N         142.5939  137.6744  156.7184 N.am    1  UNL1       -0.2647
      4 C         143.6231  136.9517  155.9009 C.2     1  UNL1        0.3047
      5 O         144.9558  137.5887  155.6394 O.2     1  UNL1       -0.2647
      6 C         142.5341  139.0005  157.4168 C.3     1  UNL1        0.1391
      7 C         143.3197  135.5921  155.3447 C.ar    1  UNL1        0.3043
      8 N         142.6425  135.3054  154.0373 N.ar    1  UNL1       -0.1021
      9 N         142.5445  133.8165  153.8829 N.ar    1  UNL1       -0.1068
     10 C         143.1611  133.1832  155.0948 C.ar    1  UNL1        0.2501
     11 O         143.6402  134.2806  155.9982 O.2     1  UNL1       -0.4122
     12 C         143.2780  131.7110  155.3571 C.ar    1  UNL1        0.0551
     13 C         144.6295  131.0871  155.5420 C.ar    1  UNL1        0.0047
     14 C         144.7465  129.6149  155.8044 C.ar    1  UNL1        0.0002
     15 C         143.5120  128.7665  155.8818 C.ar    1  UNL1        0.0000
     16 C         142.1604  129.3903  155.6970 C.ar    1  UNL1        0.0002
     17 C         142.0434  130.8625  155.4346 C.ar    1  UNL1        0.0047
     18 O         140.1092  139.4192  158.6921 O.3     1  UNL1       -0.4756
     19 C         139.1281  137.9932  162.8460 C.ar    1  UNL1        0.0216
     20 C         138.1003  138.7375  162.0462 C.ar    1  UNL1        0.0024
     21 C         138.4273  139.2128  160.6616 C.ar    1  UNL1        0.0368
     22 C         139.7822  138.9439  160.0768 C.ar    1  UNL1        0.1408
     23 C         140.8100  138.1996  160.8765 C.ar    1  UNL1        0.0662
     24 C         140.4830  137.7242  162.2612 C.ar    1  UNL1        0.1405
     25 F         141.5108  136.9800  163.0609 F       1  UNL1       -0.2044
     26 C         138.8011  137.5179  164.2306 C.3     1  UNL1        0.1015
     27 C         140.0515  140.9839  168.9659 C.3     1  UNL1        0.0897
     28 N         139.7389  140.1174  167.7820 N.3     1  UNL1       -0.2691
     29 C         138.3958  139.4594  167.6680 C.3     1  UNL1        0.0897
     30 C         138.0832  138.5929  166.4842 C.3     1  UNL1        0.0899
     31 N         139.1137  138.3844  165.4144 N.3     1  UNL1       -0.2665
     32 C         140.4568  139.0424  165.5284 C.3     1  UNL1        0.0899
     33 C         140.7694  139.9089  166.7122 C.3     1  UNL1        0.0897
@<TRIPOS>BOND
     1    27    28    1
     2    28    29    1
     3    29    30    1
     4    30    31    1
     5    31    26    1
     6    26    19    1
     7    19    20   ar
     8    20    21   ar
     9    21    22   ar
    10    22    18    1
    11    18     1    1
    12     1     2    1
    13     2     3    1
    14     3     4   am
    15     4     5    2
    16     4     7    1
    17     7     8   ar
    18     8     9   ar
    19     9    10   ar
    20    10    12    1
    21    12    13   ar
    22    13    14   ar
    23    14    15   ar
    24    15    16   ar
    25    16    17   ar
    26    10    11   ar
    27     3     6    1
    28    22    23   ar
    29    23    24   ar
    30    24    25    1
    31    31    32    1
    32    32    33    1
    33    33    28    1
    34    24    19   ar
    35     6     1    1
    36    11     7   ar
    37    17    12   ar
@<TRIPOS>MOLECULE
*****
 33 37 0 0 0
SMALL
GASTEIGER

@<TRIPOS>ATOM
      1 C         140.6956  139.2506  159.7531 C.3     1  UNL1        0.2052
      2 C         141.0990  139.6691  161.1359 C.3     1  UNL1        0.1391
      3 N         140.0702  138.7444  161.7160 N.am    1  UNL1       -0.2647
      4 C         139.6280  138.3864  163.1038 C.2     1  UNL1        0.3047
      5 O         138.5299  137.3848  163.3062 O.2     1  UNL1       -0.2647
      6 C         139.6668  138.3258  160.3332 C.3     1  UNL1        0.1391
      7 C         140.2839  139.0301  164.2894 C.ar    1  UNL1        0.3043
      8 N         141.7576  139.0737  164.5658 N.ar    1  UNL1       -0.1021
      9 N         141.9657  139.8137  165.8539 N.ar    1  UNL1       -0.1068
     10 C         140.6207  140.2273  166.3735 C.ar    1  UNL1        0.2501
     11 O         139.5813  139.7430  165.4065 O.2     1  UNL1       -0.4122
     12 C         140.3609  140.9911  167.6380 C.ar    1  UNL1        0.0551
     13 C         139.7183  140.3077  168.8085 C.ar    1  UNL1        0.0047
     14 C         139.4584  141.0714  170.0730 C.ar    1  UNL1        0.0002
     15 C         139.8411  142.5187  170.1671 C.ar    1  UNL1        0.0000
     16 C         140.4836  143.2022  168.9967 C.ar    1  UNL1        0.0002
     17 C         140.7436  142.4385  167.7321 C.ar    1  UNL1        0.0047
     18 O         141.1378  139.6085  158.3652 O.3     1  UNL1       -0.4756
     19 C         142.2295  136.3638  155.4445 C.ar    1  UNL1        0.0216
     20 C         140.8001  136.5492  155.8599 C.ar    1  UNL1        0.0024
     21 C         140.4362  137.6307  156.8334 C.ar    1  UNL1        0.0368
     22 C         141.5017  138.5269  157.3916 C.ar    1  UNL1        0.1408
     23 C         142.9311  138.3416  156.9763 C.ar    1  UNL1        0.0662
     24 C         143.2950  137.2600  156.0027 C.ar    1  UNL1        0.1405
     25 F         144.7244  137.0747  155.5874 F       1  UNL1       -0.2044
     26 C         142.5934  135.2823  154.4710 C.3     1  UNL1        0.1015
     27 C         142.6661  129.5505  156.2434 C.3     1  UNL1        0.0897
     28 N         142.6479  130.9835  155.8003 N.3     1  UNL1       -0.2691
     29 C         143.0097  132.0720  156.7668 C.3     1  UNL1        0.0897
     30 C         142.9916  133.5050  156.3237 C.3     1  UNL1        0.0899
     31 N         142.6116  133.8493  154.9141 N.3     1  UNL1       -0.2665
     32 C         142.2498  132.7608  153.9476 C.3     1  UNL1        0.0899
     33 C         142.2680  131.3278  154.3907 C.3     1  UNL1        0.0897
@<TRIPOS>BOND
     1    27    28    1
     2    28    29    1
     3    29    30    1
     4    30    31    1
     5    31    26    1
     6    26    19    1
     7    19    20   ar
     8    20    21   ar
     9    21    22   ar
    10    22    18    1
    11    18     1    1
    12     1     2    1
    13     2     3    1
    14     3     4   am
    15     4     5    2
    16     4     7    1
    17     7     8   ar
    18     8     9   ar
    19     9    10   ar
    20    10    12    1
    21    12    13   ar
    22    13    14   ar
    23    14    15   ar
    24    15    16   ar
    25    16    17   ar
    26    10    11   ar
    27     3     6    1
    28    22    23   ar
    29    23    24   ar
    30    24    25    1
    31    31    32    1
    32    32    33    1
    33    33    28    1
    34    24    19   ar
    35     6     1    1
    36    11     7   ar
    37    17    12   ar
@<TRIPOS>MOLECULE
*****
 33 37 0 0 0
SMALL
GASTEIGER

@<TRIPOS>ATOM
      1 C         140.6561  142.9347  160.3199 C.3     1  UNL1        0.2052
      2 C         140.5119  142.0738  161.5398 C.3     1  UNL1        0.1391
      3 N         139.4769  143.0148  162.0814 N.am    1  UNL1       -0.2647
      4 C         138.6431  143.0714  163.3270 C.2     1  UNL1        0.3047
      5 O         137.6806  144.2031  163.5346 O.2     1  UNL1       -0.2647
      6 C         139.6211  143.8757  160.8616 C.3     1  UNL1        0.1391
      7 C         138.7716  141.9963  164.3651 C.ar    1  UNL1        0.3043
      8 N         137.9653  140.7331  164.4307 N.ar    1  UNL1       -0.1021
      9 N         138.4245  139.9518  165.6260 N.ar    1  UNL1       -0.1068
     10 C         139.5145  140.7321  166.2991 C.ar    1  UNL1        0.2501
     11 O         139.7290  141.9957  165.5198 O.2     1  UNL1       -0.4122
     12 C         140.2591  140.3209  167.5346 C.ar    1  UNL1        0.0551
     13 C         139.5893  140.3980  168.8745 C.ar    1  UNL1        0.0047
     14 C         140.3339  139.9869  170.1101 C.ar    1  UNL1        0.0002
     15 C         141.7483  139.4986  170.0057 C.ar    1  UNL1        0.0000
     16 C         142.4182  139.4215  168.6657 C.ar    1  UNL1        0.0002
     17 C         141.6736  139.8326  167.4302 C.ar    1  UNL1        0.0047
     18 O         141.4899  142.8781  159.0743 O.3     1  UNL1       -0.4756
     19 C         140.4246  145.4450  155.5349 C.ar    1  UNL1        0.0216
     20 C         141.7248  145.6583  156.2520 C.ar    1  UNL1        0.0024
     21 C         142.0799  144.8027  157.4317 C.ar    1  UNL1        0.0368
     22 C         141.1348  143.7338  157.8945 C.ar    1  UNL1        0.1408
     23 C         139.8347  143.5204  157.1776 C.ar    1  UNL1        0.0662
     24 C         139.4795  144.3760  155.9977 C.ar    1  UNL1        0.1405
     25 F         138.1794  144.1627  155.2808 F       1  UNL1       -0.2044
     26 C         140.0696  146.3006  154.3552 C.3     1  UNL1        0.1015
     27 C         138.5705  152.0537  155.1643 C.3     1  UNL1        0.0897
     28 N         138.9453  150.6154  154.9621 N.3     1  UNL1       -0.2691
     29 C         139.7270  150.2076  153.7486 C.3     1  UNL1        0.0897
     30 C         140.1018  148.7693  153.5463 C.3     1  UNL1        0.0899
     31 N         139.6948  147.7388  154.5575 N.3     1  UNL1       -0.2665
     32 C         138.9131  148.1467  155.7709 C.3     1  UNL1        0.0899
     33 C         138.5383  149.5849  155.9732 C.3     1  UNL1        0.0897
@<TRIPOS>BOND
     1    27    28    1
     2    28    29    1
     3    29    30    1
     4    30    31    1
     5    31    26    1
     6    26    19    1
     7    19    20   ar
     8    20    21   ar
     9    21    22   ar
    10    22    18    1
    11    18     1    1
    12     1     2    1
    13     2     3    1
    14     3     4   am
    15     4     5    2
    16     4     7    1
    17     7     8   ar
    18     8     9   ar
    19     9    10   ar
    20    10    12    1
    21    12    13   ar
    22    13    14   ar
    23    14    15   ar
    24    15    16   ar
    25    16    17   ar
    26    10    11   ar
    27     3     6    1
    28    22    23   ar
    29    23    24   ar
    30    24    25    1
    31    31    32    1
    32    32    33    1
    33    33    28    1
    34    24    19   ar
    35     6     1    1
    36    11     7   ar
    37    17    12   ar
@<TRIPOS>MOLECULE
*****
 33 37 0 0 0
SMALL
GASTEIGER

@<TRIPOS>ATOM
      1 C         138.8004  139.4629  160.4448 C.3     1  UNL1        0.2052
      2 C         139.1039  140.3815  161.5912 C.3     1  UNL1        0.1391
      3 N         138.8598  139.2587  162.5555 N.am    1  UNL1       -0.2647
      4 C         138.9018  139.1144  164.0479 C.2     1  UNL1        0.3047
      5 O         138.5874  137.7921  164.6826 O.2     1  UNL1       -0.2647
      6 C         138.5563  138.3402  161.4091 C.3     1  UNL1        0.1391
      7 C         139.2581  140.2922  164.9056 C.ar    1  UNL1        0.3043
      8 N         138.7427  141.6912  164.7404 N.ar    1  UNL1       -0.1021
      9 N         139.3585  142.5414  165.8118 N.ar    1  UNL1       -0.1068
     10 C         140.2544  141.6680  166.6391 C.ar    1  UNL1        0.2501
     11 O         140.1923  140.2778  166.0790 O.2     1  UNL1       -0.4122
     12 C         141.0691  142.1075  167.8193 C.ar    1  UNL1        0.0551
     13 C         142.4526  141.5635  168.0200 C.ar    1  UNL1        0.0047
     14 C         143.2675  142.0030  169.2002 C.ar    1  UNL1        0.0002
     15 C         142.6989  142.9865  170.1797 C.ar    1  UNL1        0.0000
     16 C         141.3155  143.5304  169.9791 C.ar    1  UNL1        0.0002
     17 C         140.5006  143.0910  168.7989 C.ar    1  UNL1        0.0047
     18 O         138.7584  139.6073  158.9524 O.3     1  UNL1       -0.4756
     19 C         141.4725  137.1110  156.3731 C.ar    1  UNL1        0.0216
     20 C         140.1086  137.4915  155.8782 C.ar    1  UNL1        0.0024
     21 C         139.2039  138.3236  156.7380 C.ar    1  UNL1        0.0368
     22 C         139.6632  138.7752  158.0926 C.ar    1  UNL1        0.1408
     23 C         141.0271  138.3947  158.5875 C.ar    1  UNL1        0.0662
     24 C         141.9318  137.5626  157.7277 C.ar    1  UNL1        0.1405
     25 F         143.2957  137.1822  158.2226 F       1  UNL1       -0.2044
     26 C         142.3772  136.2790  155.5133 C.3     1  UNL1        0.1015
     27 C         143.0454  130.4252  156.6476 C.3     1  UNL1        0.0897
     28 N         142.8783  131.8886  156.3640 N.3     1  UNL1       -0.2691
     29 C         141.7452  132.3610  155.5022 C.3     1  UNL1        0.0897
     30 C         141.5781  133.8245  155.2187 C.3     1  UNL1        0.0899
     31 N         142.5442  134.8155  155.7969 N.3     1  UNL1       -0.2665
     32 C         143.6774  134.3431  156.6587 C.3     1  UNL1        0.0899
     33 C         143.8445  132.8797  156.9422 C.3     1  UNL1        0.0897
@<TRIPOS>BOND
     1    27    28    1
     2    28    29    1
     3    29    30    1
     4    30    31    1
     5    31    26    1
     6    26    19    1
     7    19    20   ar
     8    20    21   ar
     9    21    22   ar
    10    22    18    1
    11    18     1    1
    12     1     2    1
    13     2     3    1
    14     3     4   am
    15     4     5    2
    16     4     7    1
    17     7     8   ar
    18     8     9   ar
    19     9    10   ar
    20    10    12    1
    21    12    13   ar
    22    13    14   ar
    23    14    15   ar
    24    15    16   ar
    25    16    17   ar
    26    10    11   ar
    27     3     6    1
    28    22    23   ar
    29    23    24   ar
    30    24    25    1
    31    31    32    1
    32    32    33    1
    33    33    28    1
    34    24    19   ar
    35     6     1    1
    36    11     7   ar
    37    17    12   ar
@<TRIPOS>MOLECULE
*****
 33 37 0 0 0
SMALL
GASTEIGER

@<TRIPOS>ATOM
      1 C         142.6999  137.9174  158.0231 C.3     1  UNL1        0.2052
      2 C         142.9282  136.5312  157.4975 C.3     1  UNL1        0.1391
      3 N         141.7760  136.6999  156.5520 N.am    1  UNL1       -0.2647
      4 C         141.1227  135.8391  155.5119 C.2     1  UNL1        0.3047
      5 O         139.9506  136.3609  154.7346 O.2     1  UNL1       -0.2647
      6 C         141.5477  138.0862  157.0776 C.3     1  UNL1        0.1391
      7 C         141.6414  134.4564  155.2488 C.ar    1  UNL1        0.3043
      8 N         141.9908  133.8865  153.9060 N.ar    1  UNL1       -0.1021
      9 N         142.4670  132.4788  154.1098 N.ar    1  UNL1       -0.1068
     10 C         142.4120  132.1787  155.5784 C.ar    1  UNL1        0.2501
     11 O         141.9016  133.4010  156.2824 O.2     1  UNL1       -0.4122
     12 C         142.7992  130.8838  156.2288 C.ar    1  UNL1        0.0551
     13 C         142.2038  129.5945  155.7460 C.ar    1  UNL1        0.0047
     14 C         142.5910  128.2994  156.3964 C.ar    1  UNL1        0.0002
     15 C         143.5737  128.2937  157.5296 C.ar    1  UNL1        0.0000
     16 C         144.1691  129.5830  158.0126 C.ar    1  UNL1        0.0002
     17 C         143.7819  130.8781  157.3622 C.ar    1  UNL1        0.0047
     18 O         143.3533  138.7783  159.0633 O.3     1  UNL1       -0.4756
     19 C         142.3880  138.1712  163.4165 C.ar    1  UNL1        0.0216
     20 C         141.3911  137.7813  162.3657 C.ar    1  UNL1        0.0024
     21 C         141.7129  137.9836  160.9147 C.ar    1  UNL1        0.0368
     22 C         143.0315  138.5759  160.5144 C.ar    1  UNL1        0.1408
     23 C         144.0284  138.9659  161.5651 C.ar    1  UNL1        0.0662
     24 C         143.7067  138.7636  163.0162 C.ar    1  UNL1        0.1405
     25 F         144.7036  139.1536  164.0669 F       1  UNL1       -0.2044
     26 C         142.0663  137.9689  164.8675 C.3     1  UNL1        0.1015
     27 C         140.6730  142.6768  168.3164 C.3     1  UNL1        0.0897
     28 N         141.0213  141.4998  167.4542 N.3     1  UNL1       -0.2691
     29 C         140.0662  141.0382  166.3937 C.3     1  UNL1        0.0897
     30 C         140.4145  139.8612  165.5315 C.3     1  UNL1        0.0899
     31 N         141.7180  139.1459  165.7297 N.3     1  UNL1       -0.2665
     32 C         142.6731  139.6075  166.7902 C.3     1  UNL1        0.0899
     33 C         142.3247  140.7845  167.6524 C.3     1  UNL1        0.0897
@<TRIPOS>BOND
     1    27    28    1
     2    28    29    1
     3    29    30    1
     4    30    31    1
     5    31    26    1
     6    26    19    1
     7    19    20   ar
     8    20    21   ar
     9    21    22   ar
    10    22    18    1
    11    18     1    1
    12     1     2    1
    13     2     3    1
    14     3     4   am
    15     4     5    2
    16     4     7    1
    17     7     8   ar
    18     8     9   ar
    19     9    10   ar
    20    10    12    1
    21    12    13   ar
    22    13    14   ar
    23    14    15   ar
    24    15    16   ar
    25    16    17   ar
    26    10    11   ar
    27     3     6    1
    28    22    23   ar
    29    23    24   ar
    30    24    25    1
    31    31    32    1
    32    32    33    1
    33    33    28    1
    34    24    19   ar
    35     6     1    1
    36    11     7   ar
    37    17    12   ar
