@<TRIPOS>MOLECULE
*****
 33 36 0 0 0
SMALL
GASTEIGER

@<TRIPOS>ATOM
      1 C         139.4092  142.2189  164.8021 C.ar    1  UNL1        0.0508
      2 C         138.0074  141.8269  164.4397 C.ar    1  UNL1        0.0178
      3 C         137.5260  141.9841  163.0278 C.ar    1  UNL1        0.0382
      4 C         138.4463  142.5333  161.9783 C.ar    1  UNL1        0.1400
      5 C         139.8481  142.9253  162.3408 C.ar    1  UNL1        0.0525
      6 C         140.3295  142.7681  163.7527 C.ar    1  UNL1        0.0192
      7 C         140.7684  143.4746  161.2913 C.ar    1  UNL1        0.0825
      8 C         141.7796  142.6912  160.5079 C.ar    1  UNL1        0.0413
      9 C         142.4752  143.6361  159.5734 C.ar    1  UNL1        0.1217
     10 N         141.8940  145.0035  159.7793 N.ar    1  UNL1       -0.1676
     11 N         140.8391  144.9036  160.8410 N.ar    1  UNL1       -0.2487
     12 C         140.0020  146.0344  161.3612 C.3     1  UNL1        0.1537
     13 C         140.5967  140.8054  166.6302 C.2     1  UNL1        0.2496
     14 O         140.8213  139.7063  165.6345 O.2     1  UNL1       -0.2698
     15 N         139.8907  142.0617  166.2141 N.am    1  UNL1       -0.2804
     16 H         139.7432  142.7831  166.8676 H       1  UNL1        0.1552
     17 C         140.9946  141.3579  170.5400 C.ar    1  UNL1        0.1389
     18 C         142.0411  140.3339  170.8660 C.ar    1  UNL1        0.0369
     19 C         142.6061  139.4671  169.7800 C.ar    1  UNL1        0.0033
     20 C         142.1247  139.6242  168.3681 C.ar    1  UNL1        0.0047
     21 C         141.0782  140.6482  168.0422 C.ar    1  UNL1        0.0567
     22 C         140.5132  141.5151  169.1281 C.ar    1  UNL1        0.0414
     23 C         139.3282  143.1944  171.3149 C.3     1  UNL1        0.2525
     24 O         140.4295  142.2247  171.6260 O.3     1  UNL1       -0.4714
     25 O         137.9648  142.6905  160.5664 O.3     1  UNL1       -0.4739
     26 C         138.2901  141.6440  159.5422 C.3     1  UNL1        0.2226
     27 C         137.8428  140.2274  159.7492 C.3     1  UNL1        0.1202
     28 N         138.6331  139.3136  160.6383 N.3     1  UNL1       -0.2653
     29 C         137.9595  138.6093  161.7786 C.3     1  UNL1        0.1047
     30 C         138.7498  137.6955  162.6676 C.3     1  UNL1        0.1595
     31 O         140.2138  137.4861  162.4165 O.3     1  UNL1       -0.3508
     32 C         140.8874  138.1904  161.2762 C.3     1  UNL1        0.1595
     33 C         140.0970  139.1042  160.3871 C.3     1  UNL1        0.1047
@<TRIPOS>BOND
     1    23    24    1
     2    24    17    1
     3    17    18   ar
     4    18    19   ar
     5    19    20   ar
     6    20    21   ar
     7    21    13    1
     8    13    14    2
     9    13    15   am
    10    15     1    1
    11     1     2   ar
    12     2     3   ar
    13     3     4   ar
    14     4    25    1
    15    25    26    1
    16    26    27    1
    17    27    28    1
    18    28    29    1
    19    29    30    1
    20    30    31    1
    21    31    32    1
    22    32    33    1
    23     4     5   ar
    24     5     7    1
    25     7     8   ar
    26     8     9   ar
    27     9    10   ar
    28    10    11   ar
    29    11    12    1
    30     5     6   ar
    31    21    22   ar
    32    22    17   ar
    33     6     1   ar
    34    33    28    1
    35    11     7   ar
    36    15    16    1
@<TRIPOS>MOLECULE
*****
 33 36 0 0 0
SMALL
GASTEIGER

@<TRIPOS>ATOM
      1 C         141.5293  144.9518  161.1886 C.ar    1  UNL1        0.0508
      2 C         140.5461  145.4803  162.1905 C.ar    1  UNL1        0.0178
      3 C         140.5291  144.9312  163.5862 C.ar    1  UNL1        0.0382
      4 C         141.4952  143.8535  163.9800 C.ar    1  UNL1        0.1400
      5 C         142.4784  143.3249  162.9781 C.ar    1  UNL1        0.0525
      6 C         142.4954  143.8740  161.5824 C.ar    1  UNL1        0.0192
      7 C         143.4445  142.2471  163.3719 C.ar    1  UNL1        0.0825
      8 C         144.9145  142.4253  163.6117 C.ar    1  UNL1        0.0413
      9 C         145.4888  141.0903  163.9831 C.ar    1  UNL1        0.1217
     10 N         144.3738  140.0870  163.9728 N.ar    1  UNL1       -0.1676
     11 N         143.1104  140.8020  163.5951 N.ar    1  UNL1       -0.2487
     12 C         141.7514  140.1808  163.4636 C.3     1  UNL1        0.1537
     13 C         140.5313  145.0357  158.7913 C.2     1  UNL1        0.2496
     14 O         139.4990  144.0213  159.1855 O.2     1  UNL1       -0.2698
     15 N         141.5464  145.5009  159.7928 N.am    1  UNL1       -0.2804
     16 H         142.2239  146.1667  159.5340 H       1  UNL1        0.1552
     17 C         139.5913  147.2032  155.6025 C.ar    1  UNL1        0.1389
     18 C         140.5825  146.6831  154.6040 C.ar    1  UNL1        0.0369
     19 C         141.5566  145.6138  155.0013 C.ar    1  UNL1        0.0033
     20 C         141.5396  145.0647  156.3970 C.ar    1  UNL1        0.0047
     21 C         140.5484  145.5848  157.3955 C.ar    1  UNL1        0.0567
     22 C         139.5743  146.6540  156.9982 C.ar    1  UNL1        0.0414
     23 C         138.9725  149.7177  155.3921 C.3     1  UNL1        0.2525
     24 O         138.6172  148.2724  155.2053 O.3     1  UNL1       -0.4714
     25 O         141.4781  143.3043  165.3758 O.3     1  UNL1       -0.4739
     26 C         140.2061  142.7545  165.9499 C.3     1  UNL1        0.2226
     27 C         140.2228  141.4586  166.7051 C.3     1  UNL1        0.1202
     28 N         140.2264  141.4646  168.2052 N.3     1  UNL1       -0.2653
     29 C         140.4384  142.7496  168.9494 C.3     1  UNL1        0.1047
     30 C         140.4421  142.7557  170.4494 C.3     1  UNL1        0.1595
     31 O         140.2338  141.4768  171.2051 O.3     1  UNL1       -0.3508
     32 C         140.0218  140.1918  170.4609 C.3     1  UNL1        0.1595
     33 C         140.0181  140.1858  168.9608 C.3     1  UNL1        0.1047
@<TRIPOS>BOND
     1    23    24    1
     2    24    17    1
     3    17    18   ar
     4    18    19   ar
     5    19    20   ar
     6    20    21   ar
     7    21    13    1
     8    13    14    2
     9    13    15   am
    10    15     1    1
    11     1     2   ar
    12     2     3   ar
    13     3     4   ar
    14     4    25    1
    15    25    26    1
    16    26    27    1
    17    27    28    1
    18    28    29    1
    19    29    30    1
    20    30    31    1
    21    31    32    1
    22    32    33    1
    23     4     5   ar
    24     5     7    1
    25     7     8   ar
    26     8     9   ar
    27     9    10   ar
    28    10    11   ar
    29    11    12    1
    30     5     6   ar
    31    21    22   ar
    32    22    17   ar
    33     6     1   ar
    34    33    28    1
    35    11     7   ar
    36    15    16    1
@<TRIPOS>MOLECULE
*****
 33 36 0 0 0
SMALL
GASTEIGER

@<TRIPOS>ATOM
      1 C         140.1011  139.1106  164.1221 C.ar    1  UNL1        0.0508
      2 C         138.8991  138.3905  163.5867 C.ar    1  UNL1        0.0178
      3 C         138.7769  138.1264  162.1152 C.ar    1  UNL1        0.0382
      4 C         139.8566  138.5824  161.1791 C.ar    1  UNL1        0.1400
      5 C         141.0586  139.3024  161.7145 C.ar    1  UNL1        0.0525
      6 C         141.1809  139.5665  163.1860 C.ar    1  UNL1        0.0192
      7 C         142.1384  139.7584  160.7785 C.ar    1  UNL1        0.0825
      8 C         142.4306  141.1787  160.3945 C.ar    1  UNL1        0.0413
      9 C         143.5884  141.1722  159.4407 C.ar    1  UNL1        0.1217
     10 N         144.0117  139.7479  159.2353 N.ar    1  UNL1       -0.1676
     11 N         143.1155  138.8742  160.0620 N.ar    1  UNL1       -0.2487
     12 C         143.1845  137.3787  160.1558 C.3     1  UNL1        0.1537
     13 C         139.7522  140.6799  166.1630 C.2     1  UNL1        0.2496
     14 O         139.1587  141.7211  165.2610 O.2     1  UNL1       -0.2698
     15 N         140.2234  139.3747  165.5936 N.am    1  UNL1       -0.2804
     16 H         140.6129  138.6913  166.1857 H       1  UNL1        0.1552
     17 C         140.8210  142.3622  169.5949 C.ar    1  UNL1        0.1389
     18 C         140.1191  141.4723  170.5775 C.ar    1  UNL1        0.0369
     19 C         139.2949  140.3183  170.0886 C.ar    1  UNL1        0.0033
     20 C         139.1726  140.0542  168.6171 C.ar    1  UNL1        0.0047
     21 C         139.8745  140.9440  167.6346 C.ar    1  UNL1        0.0567
     22 C         140.6987  142.0980  168.1235 C.ar    1  UNL1        0.0414
     23 C         143.0189  143.2760  170.6361 C.3     1  UNL1        0.2525
     24 O         141.6451  143.5162  170.0838 O.3     1  UNL1       -0.4714
     25 O         139.7344  138.3183  159.7076 O.3     1  UNL1       -0.4739
     26 C         139.1488  139.3628  158.8042 C.3     1  UNL1        0.2226
     27 C         138.1029  140.3035  159.3247 C.3     1  UNL1        0.1202
     28 N         138.5062  141.6264  159.9056 N.3     1  UNL1       -0.2653
     29 C         139.2858  142.6034  159.0763 C.3     1  UNL1        0.1047
     30 C         139.6891  143.9262  159.6571 C.3     1  UNL1        0.1595
     31 O         139.3127  144.2722  161.0673 O.3     1  UNL1       -0.3508
     32 C         138.5331  143.2953  161.8967 C.3     1  UNL1        0.1595
     33 C         138.1298  141.9724  161.3158 C.3     1  UNL1        0.1047
@<TRIPOS>BOND
     1    23    24    1
     2    24    17    1
     3    17    18   ar
     4    18    19   ar
     5    19    20   ar
     6    20    21   ar
     7    21    13    1
     8    13    14    2
     9    13    15   am
    10    15     1    1
    11     1     2   ar
    12     2     3   ar
    13     3     4   ar
    14     4    25    1
    15    25    26    1
    16    26    27    1
    17    27    28    1
    18    28    29    1
    19    29    30    1
    20    30    31    1
    21    31    32    1
    22    32    33    1
    23     4     5   ar
    24     5     7    1
    25     7     8   ar
    26     8     9   ar
    27     9    10   ar
    28    10    11   ar
    29    11    12    1
    30     5     6   ar
    31    21    22   ar
    32    22    17   ar
    33     6     1   ar
    34    33    28    1
    35    11     7   ar
    36    15    16    1
@<TRIPOS>MOLECULE
*****
 33 36 0 0 0
SMALL
GASTEIGER

@<TRIPOS>ATOM
      1 C         141.4647  144.9752  161.0928 C.ar    1  UNL1        0.0508
      2 C         140.4858  145.4111  162.1425 C.ar    1  UNL1        0.0178
      3 C         140.5368  144.8048  163.5135 C.ar    1  UNL1        0.0382
      4 C         141.5667  143.7627  163.8349 C.ar    1  UNL1        0.1400
      5 C         142.5456  143.3269  162.7853 C.ar    1  UNL1        0.0525
      6 C         142.4946  143.9331  161.4143 C.ar    1  UNL1        0.0192
      7 C         143.5755  142.2848  163.1067 C.ar    1  UNL1        0.0825
      8 C         144.7978  142.4846  163.9530 C.ar    1  UNL1        0.0413
      9 C         145.5417  141.1832  164.0076 C.ar    1  UNL1        0.1217
     10 N         144.7791  140.1790  163.1951 N.ar    1  UNL1       -0.1676
     11 N         143.5640  140.8598  162.6384 N.ar    1  UNL1       -0.2487
     12 C         142.5206  140.2268  161.7663 C.3     1  UNL1        0.1537
     13 C         140.4126  145.0874  158.7200 C.2     1  UNL1        0.2496
     14 O         139.4623  143.9871  159.0893 O.2     1  UNL1       -0.2698
     15 N         141.4137  145.5814  159.7217 N.am    1  UNL1       -0.2804
     16 H         142.0374  146.3036  159.4793 H       1  UNL1        0.1552
     17 C         139.4606  147.5094  155.7237 C.ar    1  UNL1        0.1389
     18 C         140.2595  146.9061  154.6067 C.ar    1  UNL1        0.0369
     19 C         141.1095  145.6965  154.8608 C.ar    1  UNL1        0.0033
     20 C         141.1605  145.0903  156.2319 C.ar    1  UNL1        0.0047
     21 C         140.3616  145.6936  157.3488 C.ar    1  UNL1        0.0567
     22 C         139.5116  146.9032  157.0947 C.ar    1  UNL1        0.0414
     23 C         139.2235  149.9568  154.8846 C.3     1  UNL1        0.2525
     24 O         138.6107  148.7190  155.4696 O.3     1  UNL1       -0.4714
     25 O         141.6177  143.1565  165.2061 O.3     1  UNL1       -0.4739
     26 C         140.6571  142.0671  165.5806 C.3     1  UNL1        0.2226
     27 C         140.8890  140.6650  165.1008 C.3     1  UNL1        0.1202
     28 N         139.8990  140.0137  164.1811 N.3     1  UNL1       -0.2653
     29 C         139.8029  138.5180  164.1206 C.3     1  UNL1        0.1047
     30 C         138.8129  137.8666  163.2010 C.3     1  UNL1        0.1595
     31 O         137.9190  138.7109  162.3418 O.3     1  UNL1       -0.3508
     32 C         138.0151  140.2066  162.4023 C.3     1  UNL1        0.1595
     33 C         139.0051  140.8580  163.3220 C.3     1  UNL1        0.1047
@<TRIPOS>BOND
     1    23    24    1
     2    24    17    1
     3    17    18   ar
     4    18    19   ar
     5    19    20   ar
     6    20    21   ar
     7    21    13    1
     8    13    14    2
     9    13    15   am
    10    15     1    1
    11     1     2   ar
    12     2     3   ar
    13     3     4   ar
    14     4    25    1
    15    25    26    1
    16    26    27    1
    17    27    28    1
    18    28    29    1
    19    29    30    1
    20    30    31    1
    21    31    32    1
    22    32    33    1
    23     4     5   ar
    24     5     7    1
    25     7     8   ar
    26     8     9   ar
    27     9    10   ar
    28    10    11   ar
    29    11    12    1
    30     5     6   ar
    31    21    22   ar
    32    22    17   ar
    33     6     1   ar
    34    33    28    1
    35    11     7   ar
    36    15    16    1
@<TRIPOS>MOLECULE
*****
 33 36 0 0 0
SMALL
GASTEIGER

@<TRIPOS>ATOM
      1 C         140.0376  138.7286  161.9080 C.ar    1  UNL1        0.0508
      2 C         139.5651  137.6345  162.8188 C.ar    1  UNL1        0.0178
      3 C         138.9304  137.9756  164.1344 C.ar    1  UNL1        0.0382
      4 C         138.7683  139.4109  164.5391 C.ar    1  UNL1        0.1400
      5 C         139.2408  140.5050  163.6283 C.ar    1  UNL1        0.0525
      6 C         139.8754  140.1638  162.3128 C.ar    1  UNL1        0.0192
      7 C         139.0786  141.9402  164.0331 C.ar    1  UNL1        0.0825
      8 C         137.8025  142.7276  163.9971 C.ar    1  UNL1        0.0413
      9 C         138.0993  144.1141  164.4867 C.ar    1  UNL1        0.1217
     10 N         139.5590  144.1835  164.8253 N.ar    1  UNL1       -0.1676
     11 N         140.1642  142.8400  164.5449 N.ar    1  UNL1       -0.2487
     12 C         141.6025  142.4625  164.7418 C.3     1  UNL1        0.1537
     13 C         139.9222  138.6216  159.3147 C.2     1  UNL1        0.2496
     14 O         138.5373  139.1967  159.3526 O.2     1  UNL1       -0.2698
     15 N         140.6723  138.3875  160.5923 N.am    1  UNL1       -0.2804
     16 H         141.5812  138.0100  160.5674 H       1  UNL1        0.1552
     17 C         142.6783  138.0494  156.5170 C.ar    1  UNL1        0.1389
     18 C         141.8263  137.5983  155.3679 C.ar    1  UNL1        0.0369
     19 C         140.3396  137.4883  155.5343 C.ar    1  UNL1        0.0033
     20 C         139.7049  137.8294  156.8498 C.ar    1  UNL1        0.0047
     21 C         140.5569  138.2805  157.9990 C.ar    1  UNL1        0.0567
     22 C         142.0435  138.3905  157.8326 C.ar    1  UNL1        0.0414
     23 C         144.7366  138.7990  155.1202 C.3     1  UNL1        0.2525
     24 O         144.1649  138.1594  156.3506 O.3     1  UNL1       -0.4714
     25 O         138.1336  139.7519  165.8548 O.3     1  UNL1       -0.4739
     26 C         138.9010  139.5616  167.1295 C.3     1  UNL1        0.2226
     27 C         140.2187  140.2518  167.3217 C.3     1  UNL1        0.1202
     28 N         140.4613  141.0761  168.5513 N.3     1  UNL1       -0.2653
     29 C         140.5260  142.5714  168.4511 C.3     1  UNL1        0.1047
     30 C         140.7686  143.3956  169.6806 C.3     1  UNL1        0.1595
     31 O         140.9465  142.7246  171.0104 O.3     1  UNL1       -0.3508
     32 C         140.8819  141.2294  171.1106 C.3     1  UNL1        0.1595
     33 C         140.6393  140.4051  169.8810 C.3     1  UNL1        0.1047
@<TRIPOS>BOND
     1    23    24    1
     2    24    17    1
     3    17    18   ar
     4    18    19   ar
     5    19    20   ar
     6    20    21   ar
     7    21    13    1
     8    13    14    2
     9    13    15   am
    10    15     1    1
    11     1     2   ar
    12     2     3   ar
    13     3     4   ar
    14     4    25    1
    15    25    26    1
    16    26    27    1
    17    27    28    1
    18    28    29    1
    19    29    30    1
    20    30    31    1
    21    31    32    1
    22    32    33    1
    23     4     5   ar
    24     5     7    1
    25     7     8   ar
    26     8     9   ar
    27     9    10   ar
    28    10    11   ar
    29    11    12    1
    30     5     6   ar
    31    21    22   ar
    32    22    17   ar
    33     6     1   ar
    34    33    28    1
    35    11     7   ar
    36    15    16    1
@<TRIPOS>MOLECULE
*****
 33 36 0 0 0
SMALL
GASTEIGER

@<TRIPOS>ATOM
      1 C         143.5884  142.9441  160.5592 C.ar    1  UNL1        0.0508
      2 C         144.5149  143.0063  161.7372 C.ar    1  UNL1        0.0178
      3 C         143.9655  143.2508  163.1113 C.ar    1  UNL1        0.0382
      4 C         142.4896  143.4330  163.3075 C.ar    1  UNL1        0.1400
      5 C         141.5631  143.3707  162.1295 C.ar    1  UNL1        0.0525
      6 C         142.1125  143.1263  160.7553 C.ar    1  UNL1        0.0192
      7 C         140.0872  143.5529  162.3256 C.ar    1  UNL1        0.0825
      8 C         139.1037  142.4741  162.6705 C.ar    1  UNL1        0.0413
      9 C         137.7443  143.1004  162.7694 C.ar    1  UNL1        0.1217
     10 N         137.8876  144.5663  162.4856 N.ar    1  UNL1       -0.1676
     11 N         139.3355  144.8460  162.2113 N.ar    1  UNL1       -0.2487
     12 C         139.9278  146.1839  161.8808 C.3     1  UNL1        0.1537
     13 C         144.1795  141.3064  158.6308 C.2     1  UNL1        0.2496
     14 O         143.6717  140.1576  159.4508 O.2     1  UNL1       -0.2698
     15 N         144.1378  142.6996  159.1849 N.am    1  UNL1       -0.2804
     16 H         144.4711  143.4536  158.6467 H       1  UNL1        0.1552
     17 C         146.5249  141.5227  155.4366 C.ar    1  UNL1        0.1389
     18 C         145.8277  140.5731  154.5082 C.ar    1  UNL1        0.0369
     19 C         144.5811  139.8678  154.9539 C.ar    1  UNL1        0.0033
     20 C         144.0317  140.1123  156.3281 C.ar    1  UNL1        0.0047
     21 C         144.7289  141.0619  157.2565 C.ar    1  UNL1        0.0567
     22 C         145.9755  141.7672  156.8108 C.ar    1  UNL1        0.0414
     23 C         149.1152  141.7234  155.4266 C.3     1  UNL1        0.2525
     24 O         147.7715  142.2280  154.9909 O.3     1  UNL1       -0.4714
     25 O         141.9402  143.6774  164.6817 O.3     1  UNL1       -0.4739
     26 C         141.5411  142.5189  165.5469 C.3     1  UNL1        0.2226
     27 C         142.4254  142.0894  166.6798 C.3     1  UNL1        0.1202
     28 N         142.0494  142.4233  168.0930 N.3     1  UNL1       -0.2653
     29 C         140.6437  142.8339  168.4180 C.3     1  UNL1        0.1047
     30 C         140.2677  143.1678  169.8312 C.3     1  UNL1        0.1595
     31 O         141.2973  143.0912  170.9194 O.3     1  UNL1       -0.3508
     32 C         142.7030  142.6807  170.5943 C.3     1  UNL1        0.1595
     33 C         143.0790  142.3467  169.1811 C.3     1  UNL1        0.1047
@<TRIPOS>BOND
     1    23    24    1
     2    24    17    1
     3    17    18   ar
     4    18    19   ar
     5    19    20   ar
     6    20    21   ar
     7    21    13    1
     8    13    14    2
     9    13    15   am
    10    15     1    1
    11     1     2   ar
    12     2     3   ar
    13     3     4   ar
    14     4    25    1
    15    25    26    1
    16    26    27    1
    17    27    28    1
    18    28    29    1
    19    29    30    1
    20    30    31    1
    21    31    32    1
    22    32    33    1
    23     4     5   ar
    24     5     7    1
    25     7     8   ar
    26     8     9   ar
    27     9    10   ar
    28    10    11   ar
    29    11    12    1
    30     5     6   ar
    31    21    22   ar
    32    22    17   ar
    33     6     1   ar
    34    33    28    1
    35    11     7   ar
    36    15    16    1
@<TRIPOS>MOLECULE
*****
 33 36 0 0 0
SMALL
GASTEIGER

@<TRIPOS>ATOM
      1 C         142.8802  137.9059  161.2558 C.ar    1  UNL1        0.0508
      2 C         144.1654  138.4112  161.8415 C.ar    1  UNL1        0.0178
      3 C         144.1744  139.0315  163.2071 C.ar    1  UNL1        0.0382
      4 C         142.8983  139.1465  163.9871 C.ar    1  UNL1        0.1400
      5 C         141.6132  138.6412  163.4014 C.ar    1  UNL1        0.0525
      6 C         141.6041  138.0209  162.0357 C.ar    1  UNL1        0.0192
      7 C         140.3371  138.7562  164.1814 C.ar    1  UNL1        0.0825
      8 C         139.7128  137.6766  165.0149 C.ar    1  UNL1        0.0413
      9 C         138.4511  138.2242  165.6134 C.ar    1  UNL1        0.1217
     10 N         138.2956  139.6423  165.1499 N.ar    1  UNL1       -0.1676
     11 N         139.4612  139.9711  164.2648 N.ar    1  UNL1       -0.2487
     12 C         139.7076  141.2842  163.5829 C.3     1  UNL1        0.1537
     13 C         142.7407  138.1529  158.6732 C.2     1  UNL1        0.2496
     14 O         142.6193  139.6406  158.8220 O.2     1  UNL1       -0.2698
     15 N         142.8711  137.2856  159.8900 N.am    1  UNL1       -0.2804
     16 H         142.9508  136.3092  159.7923 H       1  UNL1        0.1552
     17 C         142.9604  135.4395  155.7854 C.ar    1  UNL1        0.1389
     18 C         142.7134  136.2919  154.5761 C.ar    1  UNL1        0.0369
     19 C         142.4755  137.7647  154.7325 C.ar    1  UNL1        0.0033
     20 C         142.4846  138.3850  156.0982 C.ar    1  UNL1        0.0047
     21 C         142.7316  137.5326  157.3074 C.ar    1  UNL1        0.0567
     22 C         142.9695  136.0599  157.1511 C.ar    1  UNL1        0.0414
     23 C         142.9375  133.0387  156.7782 C.3     1  UNL1        0.2525
     24 O         143.1983  133.9668  155.6290 O.3     1  UNL1       -0.4714
     25 O         142.9074  139.7668  165.3529 O.3     1  UNL1       -0.4739
     26 C         142.9119  141.2597  165.4985 C.3     1  UNL1        0.2226
     27 C         142.5720  141.8854  166.8187 C.3     1  UNL1        0.1202
     28 N         141.8225  141.0971  167.8516 N.3     1  UNL1       -0.2653
     29 C         142.5723  140.3455  168.9112 C.3     1  UNL1        0.1047
     30 C         141.8229  139.5572  169.9441 C.3     1  UNL1        0.1595
     31 O         140.3235  139.5204  169.9173 O.3     1  UNL1       -0.3508
     32 C         139.5737  140.2720  168.8576 C.3     1  UNL1        0.1595
     33 C         140.3232  141.0603  167.8247 C.3     1  UNL1        0.1047
@<TRIPOS>BOND
     1    23    24    1
     2    24    17    1
     3    17    18   ar
     4    18    19   ar
     5    19    20   ar
     6    20    21   ar
     7    21    13    1
     8    13    14    2
     9    13    15   am
    10    15     1    1
    11     1     2   ar
    12     2     3   ar
    13     3     4   ar
    14     4    25    1
    15    25    26    1
    16    26    27    1
    17    27    28    1
    18    28    29    1
    19    29    30    1
    20    30    31    1
    21    31    32    1
    22    32    33    1
    23     4     5   ar
    24     5     7    1
    25     7     8   ar
    26     8     9   ar
    27     9    10   ar
    28    10    11   ar
    29    11    12    1
    30     5     6   ar
    31    21    22   ar
    32    22    17   ar
    33     6     1   ar
    34    33    28    1
    35    11     7   ar
    36    15    16    1
@<TRIPOS>MOLECULE
*****
 33 36 0 0 0
SMALL
GASTEIGER

@<TRIPOS>ATOM
      1 C         141.9791  143.8264  161.7171 C.ar    1  UNL1        0.0508
      2 C         142.7272  144.6888  162.6901 C.ar    1  UNL1        0.0178
      3 C         142.6560  144.3969  164.1597 C.ar    1  UNL1        0.0382
      4 C         141.8367  143.2427  164.6563 C.ar    1  UNL1        0.1400
      5 C         141.0886  142.3804  163.6833 C.ar    1  UNL1        0.0525
      6 C         141.1598  142.6723  162.2137 C.ar    1  UNL1        0.0192
      7 C         140.2694  141.2262  164.1799 C.ar    1  UNL1        0.0825
      8 C         138.8024  141.2557  164.4915 C.ar    1  UNL1        0.0413
      9 C         138.3995  139.8876  164.9563 C.ar    1  UNL1        0.1217
     10 N         139.6176  139.0125  164.9320 N.ar    1  UNL1       -0.1676
     11 N         140.7732  139.8398  164.4521 N.ar    1  UNL1       -0.2487
     12 C         142.1848  139.3642  164.2756 C.3     1  UNL1        0.1537
     13 C         141.0136  144.9917  159.6052 C.2     1  UNL1        0.2496
     14 O         139.9058  145.5733  160.4326 O.2     1  UNL1       -0.2698
     15 N         142.0503  144.1183  160.2474 N.am    1  UNL1       -0.2804
     16 H         142.7773  143.7366  159.7044 H       1  UNL1        0.1552
     17 C         140.2103  146.5642  156.0511 C.ar    1  UNL1        0.1389
     18 C         141.2270  145.8673  155.1964 C.ar    1  UNL1        0.0369
     19 C         142.1726  144.8785  155.8113 C.ar    1  UNL1        0.0033
     20 C         142.1015  144.5866  157.2809 C.ar    1  UNL1        0.0047
     21 C         141.0848  145.2836  158.1355 C.ar    1  UNL1        0.0567
     22 C         140.1392  146.2724  157.5206 C.ar    1  UNL1        0.0414
     23 C         138.6123  148.5986  156.2912 C.3     1  UNL1        0.2525
     24 O         139.2647  147.5530  155.4362 O.3     1  UNL1       -0.4714
     25 O         141.7656  142.9508  166.1259 O.3     1  UNL1       -0.4739
     26 C         142.8526  142.1556  166.7861 C.3     1  UNL1        0.2226
     27 C         142.5018  141.0001  167.6758 C.3     1  UNL1        0.1202
     28 N         141.3873  141.1313  168.6713 N.3     1  UNL1       -0.2653
     29 C         140.1732  140.2580  168.5571 C.3     1  UNL1        0.1047
     30 C         139.0587  140.3891  169.5524 C.3     1  UNL1        0.1595
     31 O         139.1584  141.3936  170.6620 O.3     1  UNL1       -0.3508
     32 C         140.3726  142.2669  170.7762 C.3     1  UNL1        0.1595
     33 C         141.4871  142.1358  169.7808 C.3     1  UNL1        0.1047
@<TRIPOS>BOND
     1    23    24    1
     2    24    17    1
     3    17    18   ar
     4    18    19   ar
     5    19    20   ar
     6    20    21   ar
     7    21    13    1
     8    13    14    2
     9    13    15   am
    10    15     1    1
    11     1     2   ar
    12     2     3   ar
    13     3     4   ar
    14     4    25    1
    15    25    26    1
    16    26    27    1
    17    27    28    1
    18    28    29    1
    19    29    30    1
    20    30    31    1
    21    31    32    1
    22    32    33    1
    23     4     5   ar
    24     5     7    1
    25     7     8   ar
    26     8     9   ar
    27     9    10   ar
    28    10    11   ar
    29    11    12    1
    30     5     6   ar
    31    21    22   ar
    32    22    17   ar
    33     6     1   ar
    34    33    28    1
    35    11     7   ar
    36    15    16    1
@<TRIPOS>MOLECULE
*****
 33 36 0 0 0
SMALL
GASTEIGER

@<TRIPOS>ATOM
      1 C         141.8196  144.4690  161.4912 C.ar    1  UNL1        0.0508
      2 C         141.1571  145.2606  162.5795 C.ar    1  UNL1        0.0178
      3 C         141.1053  144.7174  163.9766 C.ar    1  UNL1        0.0382
      4 C         141.7159  143.3825  164.2855 C.ar    1  UNL1        0.1400
      5 C         142.3783  142.5909  163.1972 C.ar    1  UNL1        0.0525
      6 C         142.4302  143.1341  161.8000 C.ar    1  UNL1        0.0192
      7 C         142.9889  141.2561  163.5061 C.ar    1  UNL1        0.0825
      8 C         142.2748  139.9370  163.4990 C.ar    1  UNL1        0.0413
      9 C         143.2653  138.8716  163.8649 C.ar    1  UNL1        0.1217
     10 N         144.5916  139.5323  164.0980 N.ar    1  UNL1       -0.1676
     11 N         144.4208  141.0059  163.8763 N.ar    1  UNL1       -0.2487
     12 C         145.4936  142.0467  164.0026 C.3     1  UNL1        0.1537
     13 C         140.7004  144.8300  159.1744 C.2     1  UNL1        0.2496
     14 O         139.4775  144.1047  159.6522 O.2     1  UNL1       -0.2698
     15 N         141.8715  145.0122  160.0939 N.am    1  UNL1       -0.2804
     16 H         142.6741  145.4882  159.7803 H       1  UNL1        0.1552
     17 C         141.8622  145.4404  155.4290 C.ar    1  UNL1        0.1389
     18 C         140.8562  146.4595  154.9827 C.ar    1  UNL1        0.0369
     19 C         139.7982  146.9354  155.9336 C.ar    1  UNL1        0.0033
     20 C         139.7463  146.3923  157.3308 C.ar    1  UNL1        0.0047
     21 C         140.7523  145.3732  157.7771 C.ar    1  UNL1        0.0567
     22 C         141.8103  144.8972  156.8263 C.ar    1  UNL1        0.0414
     23 C         143.0100  145.5519  153.1009 C.3     1  UNL1        0.2525
     24 O         142.9202  144.9644  154.4782 O.3     1  UNL1       -0.4714
     25 O         141.6640  142.8393  165.6828 O.3     1  UNL1       -0.4739
     26 C         140.3898  142.2506  166.2118 C.3     1  UNL1        0.2226
     27 C         139.2548  141.9561  165.2765 C.3     1  UNL1        0.1202
     28 N         139.0580  140.5651  164.7505 N.3     1  UNL1       -0.2653
     29 C         138.5981  140.3555  163.3382 C.3     1  UNL1        0.1047
     30 C         138.4014  138.9646  162.8121 C.3     1  UNL1        0.1595
     31 O         138.6644  137.7833  163.6984 O.3     1  UNL1       -0.3508
     32 C         139.1243  137.9930  165.1107 C.3     1  UNL1        0.1595
     33 C         139.3211  139.3839  165.6367 C.3     1  UNL1        0.1047
@<TRIPOS>BOND
     1    23    24    1
     2    24    17    1
     3    17    18   ar
     4    18    19   ar
     5    19    20   ar
     6    20    21   ar
     7    21    13    1
     8    13    14    2
     9    13    15   am
    10    15     1    1
    11     1     2   ar
    12     2     3   ar
    13     3     4   ar
    14     4    25    1
    15    25    26    1
    16    26    27    1
    17    27    28    1
    18    28    29    1
    19    29    30    1
    20    30    31    1
    21    31    32    1
    22    32    33    1
    23     4     5   ar
    24     5     7    1
    25     7     8   ar
    26     8     9   ar
    27     9    10   ar
    28    10    11   ar
    29    11    12    1
    30     5     6   ar
    31    21    22   ar
    32    22    17   ar
    33     6     1   ar
    34    33    28    1
    35    11     7   ar
    36    15    16    1
