@<TRIPOS>MOLECULE
*****
 23 25 0 0 0
SMALL
GASTEIGER

@<TRIPOS>ATOM
      1 C         140.0930  141.5648  169.3689 C.ar    1  UNL1        0.1096
      2 C         140.9970  142.2696  168.4015 C.ar    1  UNL1        0.0891
      3 N         141.0508  141.8298  166.9685 N.ar    1  UNL1       -0.2900
      4 C         140.2005  140.6851  166.5028 C.ar    1  UNL1        0.1507
      5 N         140.2543  140.2453  165.0698 N.ar    1  UNL1       -0.2263
      6 C         139.4040  139.1006  164.6042 C.ar    1  UNL1        0.1005
      7 C         138.5000  138.3958  165.5716 C.ar    1  UNL1        0.0209
      8 C         138.4462  138.8356  167.0046 C.ar    1  UNL1        0.0078
      9 C         139.2965  139.9803  167.4702 C.ar    1  UNL1        0.0736
     10 C         139.2427  140.4201  168.9033 C.ar    1  UNL1        0.2043
     11 O         138.3387  139.7153  169.8708 O.2     1  UNL1       -0.2863
     12 C         141.9549  142.5346  166.0010 C.ar    1  UNL1        0.0659
     13 C         143.4296  142.2608  166.0168 C.ar    1  UNL1        0.0176
     14 C         144.3336  142.9656  165.0494 C.ar    1  UNL1        0.0020
     15 C         143.7630  143.9442  164.0661 C.ar    1  UNL1        0.0068
     16 C         142.2882  144.2180  164.0503 C.ar    1  UNL1        0.0360
     17 BR        141.7176  145.1965  163.0671 Br      1  UNL1       -0.0489
     18 C         141.3841  143.5132  165.0178 C.ar    1  UNL1        0.0243
     19 N         139.3108  143.2621  171.1738 N.am    1  UNL1       -0.3252
     20 C         140.0392  142.0046  170.8020 C.2     1  UNL1        0.2473
     21 O         140.7139  141.1871  171.8633 O.2     1  UNL1       -0.2702
     22 H         139.2755  143.5508  172.1143 H       1  UNL1        0.1453
     23 H         138.8680  143.7987  170.4772 H       1  UNL1        0.1453
@<TRIPOS>BOND
     1    19    20   am
     2    20    21    2
     3    20     1    1
     4     1     2   ar
     5     2     3   ar
     6     3    12    1
     7    12    13   ar
     8    13    14   ar
     9    14    15   ar
    10    15    16   ar
    11    16    17    1
    12    16    18   ar
    13     3     4   ar
    14     4     5   ar
    15     5     6   ar
    16     6     7   ar
    17     7     8   ar
    18     8     9   ar
    19     9    10   ar
    20    10    11    2
    21    10     1   ar
    22    18    12   ar
    23     9     4   ar
    24    19    22    1
    25    19    23    1
@<TRIPOS>MOLECULE
*****
 23 25 0 0 0
SMALL
GASTEIGER

@<TRIPOS>ATOM
      1 C         141.8236  140.6017  169.3113 C.ar    1  UNL1        0.1096
      2 C         142.6866  141.0909  168.1861 C.ar    1  UNL1        0.0891
      3 N         142.1927  141.0096  166.7722 N.ar    1  UNL1       -0.2900
      4 C         140.8357  140.4392  166.4833 C.ar    1  UNL1        0.1507
      5 N         140.3418  140.3580  165.0693 N.ar    1  UNL1       -0.2263
      6 C         138.9849  139.7876  164.7804 C.ar    1  UNL1        0.1005
      7 C         138.1219  139.2985  165.9056 C.ar    1  UNL1        0.0209
      8 C         138.6158  139.3797  167.3196 C.ar    1  UNL1        0.0078
      9 C         139.9727  139.9501  167.6084 C.ar    1  UNL1        0.0736
     10 C         140.4667  140.0313  169.0225 C.ar    1  UNL1        0.2043
     11 O         139.6037  139.5422  170.1476 O.2     1  UNL1       -0.2863
     12 C         143.0557  141.4988  165.6470 C.ar    1  UNL1        0.0659
     13 C         144.0105  140.5599  164.9713 C.ar    1  UNL1        0.0176
     14 C         144.8735  141.0490  163.8462 C.ar    1  UNL1        0.0020
     15 C         144.7816  142.4771  163.3967 C.ar    1  UNL1        0.0068
     16 C         143.8267  143.4161  164.0723 C.ar    1  UNL1        0.0360
     17 BR        143.7348  144.8442  163.6229 Br      1  UNL1       -0.0489
     18 C         142.9637  142.9270  165.1975 C.ar    1  UNL1        0.0243
     19 N         143.4631  139.8229  171.1702 N.am    1  UNL1       -0.3252
     20 C         142.3175  140.6830  170.7254 C.2     1  UNL1        0.2473
     21 O         141.6659  141.6243  171.6945 O.2     1  UNL1       -0.2702
     22 H         143.7873  139.8762  172.0982 H       1  UNL1        0.1453
     23 H         143.8908  139.2051  170.5341 H       1  UNL1        0.1453
@<TRIPOS>BOND
     1    19    20   am
     2    20    21    2
     3    20     1    1
     4     1     2   ar
     5     2     3   ar
     6     3    12    1
     7    12    13   ar
     8    13    14   ar
     9    14    15   ar
    10    15    16   ar
    11    16    17    1
    12    16    18   ar
    13     3     4   ar
    14     4     5   ar
    15     5     6   ar
    16     6     7   ar
    17     7     8   ar
    18     8     9   ar
    19     9    10   ar
    20    10    11    2
    21    10     1   ar
    22    18    12   ar
    23     9     4   ar
    24    19    22    1
    25    19    23    1
@<TRIPOS>MOLECULE
*****
 23 25 0 0 0
SMALL
GASTEIGER

@<TRIPOS>ATOM
      1 C         140.8249  140.3450  169.4416 C.ar    1  UNL1        0.1096
      2 C         140.0877  141.2093  168.4621 C.ar    1  UNL1        0.0891
      3 N         140.4819  141.2071  167.0148 N.ar    1  UNL1       -0.2900
      4 C         141.6135  140.3406  166.5471 C.ar    1  UNL1        0.1507
      5 N         142.0078  140.3383  165.0998 N.ar    1  UNL1       -0.2263
      6 C         143.1393  139.4719  164.6321 C.ar    1  UNL1        0.1005
      7 C         143.8765  138.6076  165.6117 C.ar    1  UNL1        0.0209
      8 C         143.4823  138.6098  167.0589 C.ar    1  UNL1        0.0078
      9 C         142.3508  139.4763  167.5266 C.ar    1  UNL1        0.0736
     10 C         141.9564  139.4785  168.9739 C.ar    1  UNL1        0.2043
     11 O         142.6937  138.6142  169.9534 O.2     1  UNL1       -0.2863
     12 C         139.7447  142.0714  166.0353 C.ar    1  UNL1        0.0659
     13 C         139.8718  143.5642  166.1082 C.ar    1  UNL1        0.0176
     14 C         139.1346  144.4284  165.1287 C.ar    1  UNL1        0.0020
     15 C         138.2701  143.7999  164.0763 C.ar    1  UNL1        0.0068
     16 C         138.1429  142.3071  164.0033 C.ar    1  UNL1        0.0360
     17 BR        137.2785  141.6786  162.9509 Br      1  UNL1       -0.0489
     18 C         138.8802  141.4428  164.9828 C.ar    1  UNL1        0.0243
     19 N         139.7550  139.1475  171.4840 N.am    1  UNL1       -0.3252
     20 C         140.4306  140.3473  170.8889 C.2     1  UNL1        0.2473
     21 O         140.7119  141.5492  171.7410 O.2     1  UNL1       -0.2702
     22 H         139.4962  139.1490  172.4339 H       1  UNL1        0.1453
     23 H         139.5704  138.3586  170.9247 H       1  UNL1        0.1453
@<TRIPOS>BOND
     1    19    20   am
     2    20    21    2
     3    20     1    1
     4     1     2   ar
     5     2     3   ar
     6     3    12    1
     7    12    13   ar
     8    13    14   ar
     9    14    15   ar
    10    15    16   ar
    11    16    17    1
    12    16    18   ar
    13     3     4   ar
    14     4     5   ar
    15     5     6   ar
    16     6     7   ar
    17     7     8   ar
    18     8     9   ar
    19     9    10   ar
    20    10    11    2
    21    10     1   ar
    22    18    12   ar
    23     9     4   ar
    24    19    22    1
    25    19    23    1
@<TRIPOS>MOLECULE
*****
 23 25 0 0 0
SMALL
GASTEIGER

@<TRIPOS>ATOM
      1 C         141.2638  142.4973  168.6426 C.ar    1  UNL1        0.1096
      2 C         140.4218  142.9503  167.4868 C.ar    1  UNL1        0.0891
      3 N         140.4108  142.1602  166.2118 N.ar    1  UNL1       -0.2900
      4 C         141.2418  140.9171  166.0926 C.ar    1  UNL1        0.1507
      5 N         141.2308  140.1270  164.8176 N.ar    1  UNL1       -0.2263
      6 C         142.0618  138.8839  164.6984 C.ar    1  UNL1        0.1005
      7 C         142.9038  138.4310  165.8542 C.ar    1  UNL1        0.0209
      8 C         142.9148  139.2210  167.1292 C.ar    1  UNL1        0.0078
      9 C         142.0838  140.4641  167.2484 C.ar    1  UNL1        0.0736
     10 C         142.0948  141.2543  168.5234 C.ar    1  UNL1        0.2043
     11 O         142.9368  140.8013  169.6792 O.2     1  UNL1       -0.2863
     12 C         139.5688  142.6132  165.0560 C.ar    1  UNL1        0.0659
     13 C         138.3031  141.8824  164.7183 C.ar    1  UNL1        0.0176
     14 C         137.4611  142.3354  163.5625 C.ar    1  UNL1        0.0020
     15 C         137.8848  143.5191  162.7444 C.ar    1  UNL1        0.0068
     16 C         139.1505  144.2499  163.0821 C.ar    1  UNL1        0.0360
     17 BR        139.5742  145.4335  162.2640 Br      1  UNL1       -0.0489
     18 C         139.9925  143.7969  164.2379 C.ar    1  UNL1        0.0243
     19 N         142.5750  143.5874  170.6029 N.am    1  UNL1       -0.3252
     20 C         141.2748  143.2875  169.9176 C.2     1  UNL1        0.2473
     21 O         139.9857  143.7777  170.5072 O.2     1  UNL1       -0.2702
     22 H         142.5822  144.1060  171.4397 H       1  UNL1        0.1453
     23 H         143.4211  143.2656  170.2158 H       1  UNL1        0.1453
@<TRIPOS>BOND
     1    19    20   am
     2    20    21    2
     3    20     1    1
     4     1     2   ar
     5     2     3   ar
     6     3    12    1
     7    12    13   ar
     8    13    14   ar
     9    14    15   ar
    10    15    16   ar
    11    16    17    1
    12    16    18   ar
    13     3     4   ar
    14     4     5   ar
    15     5     6   ar
    16     6     7   ar
    17     7     8   ar
    18     8     9   ar
    19     9    10   ar
    20    10    11    2
    21    10     1   ar
    22    18    12   ar
    23     9     4   ar
    24    19    22    1
    25    19    23    1
@<TRIPOS>MOLECULE
*****
 23 25 0 0 0
SMALL
GASTEIGER

@<TRIPOS>ATOM
      1 C         140.1145  140.4144  168.9312 C.ar    1  UNL1        0.1096
      2 C         139.5319  139.8230  167.6819 C.ar    1  UNL1        0.0891
      3 N         140.1647  140.1069  166.3519 N.ar    1  UNL1       -0.2900
      4 C         141.3801  140.9824  166.2712 C.ar    1  UNL1        0.1507
      5 N         142.0129  141.2664  164.9412 N.ar    1  UNL1       -0.2263
      6 C         143.2282  142.1418  164.8605 C.ar    1  UNL1        0.1005
      7 C         143.8108  142.7332  166.1099 C.ar    1  UNL1        0.0209
      8 C         143.1780  142.4493  167.4398 C.ar    1  UNL1        0.0078
      9 C         141.9627  141.5739  167.5205 C.ar    1  UNL1        0.0736
     10 C         141.3298  141.2899  168.8506 C.ar    1  UNL1        0.2043
     11 O         141.9124  141.8813  170.0999 O.2     1  UNL1       -0.2863
     12 C         139.5821  139.5155  165.1026 C.ar    1  UNL1        0.0659
     13 C         139.6802  138.0393  164.8553 C.ar    1  UNL1        0.0176
     14 C         139.0976  137.4479  163.6059 C.ar    1  UNL1        0.0020
     15 C         138.4170  138.3326  162.6040 C.ar    1  UNL1        0.0068
     16 C         138.3189  139.8088  162.8513 C.ar    1  UNL1        0.0360
     17 BR        137.6382  140.6936  161.8494 Br      1  UNL1       -0.0489
     18 C         138.9014  140.4003  164.1007 C.ar    1  UNL1        0.0243
     19 N         140.3345  140.0277  171.4910 N.am    1  UNL1       -0.3252
     20 C         139.4817  140.1304  170.2613 C.2     1  UNL1        0.2473
     21 O         137.9961  139.9492  170.3616 O.2     1  UNL1       -0.2702
     22 H         139.9192  139.8414  172.3639 H       1  UNL1        0.1453
     23 H         141.3096  140.1467  171.4251 H       1  UNL1        0.1453
@<TRIPOS>BOND
     1    19    20   am
     2    20    21    2
     3    20     1    1
     4     1     2   ar
     5     2     3   ar
     6     3    12    1
     7    12    13   ar
     8    13    14   ar
     9    14    15   ar
    10    15    16   ar
    11    16    17    1
    12    16    18   ar
    13     3     4   ar
    14     4     5   ar
    15     5     6   ar
    16     6     7   ar
    17     7     8   ar
    18     8     9   ar
    19     9    10   ar
    20    10    11    2
    21    10     1   ar
    22    18    12   ar
    23     9     4   ar
    24    19    22    1
    25    19    23    1
@<TRIPOS>MOLECULE
*****
 23 25 0 0 0
SMALL
GASTEIGER

@<TRIPOS>ATOM
      1 C         141.2303  143.6319  162.5161 C.ar    1  UNL1        0.1096
      2 C         140.4552  142.4134  162.9216 C.ar    1  UNL1        0.0891
      3 N         141.1745  141.2101  163.4551 N.ar    1  UNL1       -0.2900
      4 C         142.6690  141.2252  163.5830 C.ar    1  UNL1        0.1507
      5 N         143.3883  140.0219  164.1165 N.ar    1  UNL1       -0.2263
      6 C         144.8827  140.0371  164.2444 C.ar    1  UNL1        0.1005
      7 C         145.6579  141.2556  163.8389 C.ar    1  UNL1        0.0209
      8 C         144.9386  142.4589  163.3055 C.ar    1  UNL1        0.0078
      9 C         143.4441  142.4437  163.1775 C.ar    1  UNL1        0.0736
     10 C         142.7247  143.6471  162.6440 C.ar    1  UNL1        0.2043
     11 O         143.4999  144.8656  162.2385 O.2     1  UNL1       -0.2863
     12 C         140.3994  139.9916  163.8606 C.ar    1  UNL1        0.0659
     13 C         140.4295  138.7630  163.0006 C.ar    1  UNL1        0.0176
     14 C         139.6544  137.5445  163.4061 C.ar    1  UNL1        0.0020
     15 C         138.8491  137.5546  164.6716 C.ar    1  UNL1        0.0068
     16 C         138.8190  138.7832  165.5316 C.ar    1  UNL1        0.0360
     17 BR        138.0137  138.7933  166.7970 Br      1  UNL1       -0.0489
     18 C         139.5941  140.0017  165.1261 C.ar    1  UNL1        0.0243
     19 N         140.7039  146.1734  162.6322 N.am    1  UNL1       -0.3252
     20 C         140.5109  144.8352  161.9826 C.2     1  UNL1        0.2473
     21 O         139.5987  144.7003  160.7996 O.2     1  UNL1       -0.2702
     22 H         140.2317  146.9632  162.2821 H       1  UNL1        0.1453
     23 H         141.3026  146.2620  163.4087 H       1  UNL1        0.1453
@<TRIPOS>BOND
     1    19    20   am
     2    20    21    2
     3    20     1    1
     4     1     2   ar
     5     2     3   ar
     6     3    12    1
     7    12    13   ar
     8    13    14   ar
     9    14    15   ar
    10    15    16   ar
    11    16    17    1
    12    16    18   ar
    13     3     4   ar
    14     4     5   ar
    15     5     6   ar
    16     6     7   ar
    17     7     8   ar
    18     8     9   ar
    19     9    10   ar
    20    10    11    2
    21    10     1   ar
    22    18    12   ar
    23     9     4   ar
    24    19    22    1
    25    19    23    1
@<TRIPOS>MOLECULE
*****
 23 25 0 0 0
SMALL
GASTEIGER

@<TRIPOS>ATOM
      1 C         138.6804  142.7674  164.2487 C.ar    1  UNL1        0.1096
      2 C         139.4914  142.2900  165.4167 C.ar    1  UNL1        0.0891
      3 N         139.8291  140.8346  165.5505 N.ar    1  UNL1       -0.2900
      4 C         139.3558  139.8567  164.5162 C.ar    1  UNL1        0.1507
      5 N         139.6936  138.4014  164.6499 N.ar    1  UNL1       -0.2263
      6 C         139.2203  137.4235  163.6157 C.ar    1  UNL1        0.1005
      7 C         138.4093  137.9010  162.4476 C.ar    1  UNL1        0.0209
      8 C         138.0716  139.3563  162.3139 C.ar    1  UNL1        0.0078
      9 C         138.5448  140.3342  163.3481 C.ar    1  UNL1        0.0736
     10 C         138.2071  141.7896  163.2144 C.ar    1  UNL1        0.2043
     11 O         137.3961  142.2671  162.0464 O.2     1  UNL1       -0.2863
     12 C         140.6401  140.3572  166.7185 C.ar    1  UNL1        0.0659
     13 C         142.0094  139.7862  166.4975 C.ar    1  UNL1        0.0176
     14 C         142.8204  139.3087  167.6655 C.ar    1  UNL1        0.0020
     15 C         142.2621  139.4022  169.0546 C.ar    1  UNL1        0.0068
     16 C         140.8927  139.9732  169.2756 C.ar    1  UNL1        0.0360
     17 BR        140.3344  140.0668  170.6647 Br      1  UNL1       -0.0489
     18 C         140.0817  140.4507  168.1076 C.ar    1  UNL1        0.0243
     19 N         138.2268  144.8439  162.7545 N.am    1  UNL1       -0.3252
     20 C         138.3427  144.2228  164.1150 C.2     1  UNL1        0.2473
     21 O         138.1209  145.0571  165.3416 O.2     1  UNL1       -0.2702
     22 H         138.0052  145.7991  162.6667 H       1  UNL1        0.1453
     23 H         138.3724  144.2964  161.9494 H       1  UNL1        0.1453
@<TRIPOS>BOND
     1    19    20   am
     2    20    21    2
     3    20     1    1
     4     1     2   ar
     5     2     3   ar
     6     3    12    1
     7    12    13   ar
     8    13    14   ar
     9    14    15   ar
    10    15    16   ar
    11    16    17    1
    12    16    18   ar
    13     3     4   ar
    14     4     5   ar
    15     5     6   ar
    16     6     7   ar
    17     7     8   ar
    18     8     9   ar
    19     9    10   ar
    20    10    11    2
    21    10     1   ar
    22    18    12   ar
    23     9     4   ar
    24    19    22    1
    25    19    23    1
@<TRIPOS>MOLECULE
*****
 23 25 0 0 0
SMALL
GASTEIGER

@<TRIPOS>ATOM
      1 C         139.2829  139.3658  163.3143 C.ar    1  UNL1        0.1096
      2 C         140.0462  139.5459  164.5929 C.ar    1  UNL1        0.0891
      3 N         140.0470  140.8768  165.2848 N.ar    1  UNL1       -0.2900
      4 C         139.2845  142.0276  164.6981 C.ar    1  UNL1        0.1507
      5 N         139.2853  143.3585  165.3899 N.ar    1  UNL1       -0.2263
      6 C         138.5228  144.5092  164.8032 C.ar    1  UNL1        0.1005
      7 C         137.7595  144.3291  163.5245 C.ar    1  UNL1        0.0209
      8 C         137.7587  142.9982  162.8327 C.ar    1  UNL1        0.0078
      9 C         138.5212  141.8475  163.4194 C.ar    1  UNL1        0.0736
     10 C         138.5204  140.5165  162.7276 C.ar    1  UNL1        0.2043
     11 O         137.7571  140.3364  161.4489 O.2     1  UNL1       -0.2863
     12 C         140.8103  141.0569  166.5635 C.ar    1  UNL1        0.0659
     13 C         142.1321  141.7659  166.5544 C.ar    1  UNL1        0.0176
     14 C         142.8954  141.9461  167.8330 C.ar    1  UNL1        0.0020
     15 C         142.3369  141.4172  169.1207 C.ar    1  UNL1        0.0068
     16 C         141.0151  140.7081  169.1299 C.ar    1  UNL1        0.0360
     17 BR        140.4566  140.1792  170.4176 Br      1  UNL1       -0.0489
     18 C         140.2518  140.5280  167.8513 C.ar    1  UNL1        0.0243
     19 N         138.0472  137.5564  161.9182 N.am    1  UNL1       -0.3252
     20 C         139.2821  138.0348  162.6224 C.2     1  UNL1        0.2473
     21 O         140.5163  137.1824  162.6348 O.2     1  UNL1       -0.2702
     22 H         138.0466  136.6829  161.4641 H       1  UNL1        0.1453
     23 H         137.2372  138.1159  161.9100 H       1  UNL1        0.1453
@<TRIPOS>BOND
     1    19    20   am
     2    20    21    2
     3    20     1    1
     4     1     2   ar
     5     2     3   ar
     6     3    12    1
     7    12    13   ar
     8    13    14   ar
     9    14    15   ar
    10    15    16   ar
    11    16    17    1
    12    16    18   ar
    13     3     4   ar
    14     4     5   ar
    15     5     6   ar
    16     6     7   ar
    17     7     8   ar
    18     8     9   ar
    19     9    10   ar
    20    10    11    2
    21    10     1   ar
    22    18    12   ar
    23     9     4   ar
    24    19    22    1
    25    19    23    1
@<TRIPOS>MOLECULE
*****
 23 25 0 0 0
SMALL
GASTEIGER

@<TRIPOS>ATOM
      1 C         142.7729  141.1563  167.8914 C.ar    1  UNL1        0.1096
      2 C         142.2529  142.2658  167.0262 C.ar    1  UNL1        0.0891
      3 N         141.7414  141.9657  165.6485 N.ar    1  UNL1       -0.2900
      4 C         141.7499  140.5560  165.1358 C.ar    1  UNL1        0.1507
      5 N         141.2384  140.2559  163.7581 N.ar    1  UNL1       -0.2263
      6 C         141.2468  138.8463  163.2455 C.ar    1  UNL1        0.1005
      7 C         141.7668  137.7368  164.1106 C.ar    1  UNL1        0.0209
      8 C         142.2783  138.0368  165.4884 C.ar    1  UNL1        0.0078
      9 C         142.2699  139.4465  166.0010 C.ar    1  UNL1        0.0736
     10 C         142.7814  139.7466  167.3788 C.ar    1  UNL1        0.2043
     11 O         143.3014  138.6371  168.2440 O.2     1  UNL1       -0.2863
     12 C         141.2215  143.0753  164.7833 C.ar    1  UNL1        0.0659
     13 C         142.1599  144.1236  164.2634 C.ar    1  UNL1        0.0176
     14 C         141.6399  145.2332  163.3982 C.ar    1  UNL1        0.0020
     15 C         140.1815  145.2944  163.0530 C.ar    1  UNL1        0.0068
     16 C         139.2430  144.2461  163.5729 C.ar    1  UNL1        0.0360
     17 BR        137.7846  144.3073  163.2277 Br      1  UNL1       -0.0489
     18 C         139.7630  143.1365  164.4381 C.ar    1  UNL1        0.0243
     19 N         143.1207  140.4468  170.3665 N.am    1  UNL1       -0.3252
     20 C         143.2844  141.4564  169.2692 C.2     1  UNL1        0.2473
     21 O         143.9597  142.7661  169.5498 O.2     1  UNL1       -0.2702
     22 H         143.4564  140.6438  171.2707 H       1  UNL1        0.1453
     23 H         142.6775  139.5872  170.1823 H       1  UNL1        0.1453
@<TRIPOS>BOND
     1    19    20   am
     2    20    21    2
     3    20     1    1
     4     1     2   ar
     5     2     3   ar
     6     3    12    1
     7    12    13   ar
     8    13    14   ar
     9    14    15   ar
    10    15    16   ar
    11    16    17    1
    12    16    18   ar
    13     3     4   ar
    14     4     5   ar
    15     5     6   ar
    16     6     7   ar
    17     7     8   ar
    18     8     9   ar
    19     9    10   ar
    20    10    11    2
    21    10     1   ar
    22    18    12   ar
    23     9     4   ar
    24    19    22    1
    25    19    23    1
