@<TRIPOS>MOLECULE
*****
 34 38 0 0 0
SMALL
GASTEIGER

@<TRIPOS>ATOM
      1 C         141.1920  142.0620  161.8168 C.3     1  UNL1        0.0570
      2 C         140.9115  143.5187  161.5949 C.3     1  UNL1        0.0457
      3 C         139.5895  143.8378  162.2278 C.3     1  UNL1        0.1247
      4 O         138.5991  144.9354  162.4819 O.3     1  UNL1       -0.3557
      5 C         137.4505  144.3542  163.2520 C.3     1  UNL1        0.1426
      6 C         137.7311  142.8974  163.4738 C.3     1  UNL1        0.0431
      7 C         139.0530  142.5783  162.8409 C.3     1  UNL1        0.0976
      8 C         140.0434  141.4808  162.5868 C.3     1  UNL1        0.0269
      9 C         138.5165  141.3188  163.4539 C.2     1  UNL1        0.2274
     10 O         137.6157  140.4218  162.6578 O.2     1  UNL1       -0.2748
     11 N         138.8809  140.9563  164.8632 N.am    1  UNL1       -0.2749
     12 C         138.3444  139.6968  165.4762 C.3     1  UNL1        0.1000
     13 C         138.7088  139.3344  166.8854 C.3     1  UNL1        0.0670
     14 C         139.6096  140.2314  167.6815 C.ar    1  UNL1        0.0583
     15 N         139.9740  139.8689  169.0908 N.ar    1  UNL1       -0.2484
     16 C         140.8748  140.7659  169.8869 C.ar    1  UNL1        0.1023
     17 C         141.4113  142.0254  169.2738 C.ar    1  UNL1        0.0902
     18 C         141.0469  142.3879  167.8646 C.ar    1  UNL1        0.0040
     19 C         140.1461  141.4909  167.0685 C.ar    1  UNL1        0.0113
     20 C         139.7817  141.8533  165.6593 C.3     1  UNL1        0.1213
     21 C         142.3121  142.9225  170.0699 C.3     1  UNL1        0.4200
     22 F         143.2130  143.8195  170.8661 F       1  UNL1       -0.1658
     23 F         141.2795  144.0090  170.0142 F       1  UNL1       -0.1658
     24 F         143.3448  141.8360  170.1257 F       1  UNL1       -0.1658
     25 N         142.4077  141.3172  161.3505 N.3     1  UNL1       -0.2974
     26 H         142.0782  140.4441  160.9387 H       1  UNL1        0.1232
     27 C         144.5658  141.9439  162.6542 C.3     1  UNL1        0.1591
     28 C         145.6443  141.5817  163.6318 C.3     1  UNL1        0.1729
     29 O         145.6431  140.2306  164.2833 O.3     1  UNL1       -0.3511
     30 C         144.5634  139.2416  163.9572 C.3     1  UNL1        0.1437
     31 C         143.4849  139.6038  162.9796 C.3     1  UNL1        0.0503
     32 C         143.4862  140.9550  162.3281 C.3     1  UNL1        0.0865
     33 C         144.1328  144.5026  162.7794 C.3     1  UNL1        0.1742
     34 O         144.5670  143.2950  162.0027 O.3     1  UNL1       -0.3496
@<TRIPOS>BOND
     1    33    34    1
     2    34    27    1
     3    27    28    1
     4    28    29    1
     5    29    30    1
     6    30    31    1
     7    31    32    1
     8    32    25    1
     9     1    25    1
    10     1     2    1
    11     3     2    1
    12     3     4    1
    13     4     5    1
    14     5     6    1
    15     6     7    1
    16     7     9    1
    17     9    10    2
    18     9    11   am
    19    11    12    1
    20    12    13    1
    21    13    14    1
    22    14    15   ar
    23    15    16   ar
    24    16    17   ar
    25    17    21    1
    26    21    22    1
    27    21    23    1
    28    21    24    1
    29    17    18   ar
    30    18    19   ar
    31    19    20    1
    32     7     8    1
    33    32    27    1
    34     8     1    1
    35     7     3    1
    36    20    11    1
    37    19    14   ar
    38    25    26    1
@<TRIPOS>MOLECULE
*****
 34 38 0 0 0
SMALL
GASTEIGER

@<TRIPOS>ATOM
      1 C         141.1799  141.8761  161.8573 C.3     1  UNL1        0.0570
      2 C         140.9557  143.3367  161.5999 C.3     1  UNL1        0.0457
      3 C         139.6442  143.7204  162.2184 C.3     1  UNL1        0.1247
      4 O         138.6950  144.8602  162.4416 O.3     1  UNL1       -0.3557
      5 C         137.5220  144.3412  163.2192 C.3     1  UNL1        0.1426
      6 C         137.7462  142.8806  163.4766 C.3     1  UNL1        0.0431
      7 C         139.0577  142.4969  162.8581 C.3     1  UNL1        0.0976
      8 C         140.0069  141.3570  162.6348 C.3     1  UNL1        0.0269
      9 C         138.4713  141.2734  163.4977 C.2     1  UNL1        0.2274
     10 O         137.5236  140.4044  162.7253 O.2     1  UNL1       -0.2748
     11 N         138.8327  140.9188  164.9097 N.am    1  UNL1       -0.2749
     12 C         138.2464  139.6953  165.5494 C.3     1  UNL1        0.1000
     13 C         138.6078  139.3409  166.9613 C.3     1  UNL1        0.0670
     14 C         139.5555  140.2099  167.7337 C.ar    1  UNL1        0.0583
     15 N         139.9169  139.8553  169.1457 N.ar    1  UNL1       -0.2484
     16 C         140.8647  140.7244  169.9180 C.ar    1  UNL1        0.1023
     17 C         141.4511  141.9479  169.2783 C.ar    1  UNL1        0.0902
     18 C         141.0897  142.3024  167.8664 C.ar    1  UNL1        0.0040
     19 C         140.1419  141.4334  167.0940 C.ar    1  UNL1        0.0113
     20 C         139.7805  141.7879  165.6821 C.3     1  UNL1        0.1213
     21 C         142.3989  142.8169  170.0507 C.3     1  UNL1        0.4200
     22 F         143.3467  143.6860  170.8230 F       1  UNL1       -0.1658
     23 F         143.3991  141.6995  170.0806 F       1  UNL1       -0.1658
     24 F         141.3987  143.9344  170.0208 F       1  UNL1       -0.1658
     25 N         142.3685  141.0750  161.4147 N.3     1  UNL1       -0.2974
     26 H         142.0282  140.1381  161.1987 H       1  UNL1        0.1232
     27 C         143.7197  139.6326  163.1011 C.3     1  UNL1        0.1591
     28 C         144.8951  139.4657  164.0179 C.3     1  UNL1        0.1729
     29 O         145.8947  140.5743  164.1652 O.3     1  UNL1       -0.3511
     30 C         145.7189  141.8499  163.3957 C.3     1  UNL1        0.1437
     31 C         144.5435  142.0168  162.4789 C.3     1  UNL1        0.0503
     32 C         143.5439  140.9081  162.3316 C.3     1  UNL1        0.0865
     33 C         141.5825  138.4059  163.9244 C.3     1  UNL1        0.1742
     34 O         142.7200  138.5241  162.9537 O.3     1  UNL1       -0.3496
@<TRIPOS>BOND
     1    33    34    1
     2    34    27    1
     3    27    28    1
     4    28    29    1
     5    29    30    1
     6    30    31    1
     7    31    32    1
     8    32    25    1
     9     1    25    1
    10     1     2    1
    11     3     2    1
    12     3     4    1
    13     4     5    1
    14     5     6    1
    15     6     7    1
    16     7     9    1
    17     9    10    2
    18     9    11   am
    19    11    12    1
    20    12    13    1
    21    13    14    1
    22    14    15   ar
    23    15    16   ar
    24    16    17   ar
    25    17    21    1
    26    21    22    1
    27    21    23    1
    28    21    24    1
    29    17    18   ar
    30    18    19   ar
    31    19    20    1
    32     7     8    1
    33    32    27    1
    34     8     1    1
    35     7     3    1
    36    20    11    1
    37    19    14   ar
    38    25    26    1
@<TRIPOS>MOLECULE
*****
 34 38 0 0 0
SMALL
GASTEIGER

@<TRIPOS>ATOM
      1 C         138.1096  142.1227  162.7933 C.3     1  UNL1        0.0570
      2 C         137.5457  143.4601  162.4148 C.3     1  UNL1        0.0457
      3 C         138.6930  144.3987  162.1853 C.3     1  UNL1        0.1247
      4 O         139.0536  145.8054  161.8096 O.3     1  UNL1       -0.3557
      5 C         140.5494  145.9175  161.8140 C.3     1  UNL1        0.1426
      6 C         141.1133  144.5800  162.1925 C.3     1  UNL1        0.0431
      7 C         139.9660  143.6414  162.4220 C.3     1  UNL1        0.0976
      8 C         139.6054  142.2347  162.7978 C.3     1  UNL1        0.0269
      9 C         141.2390  142.8841  162.6587 C.2     1  UNL1        0.2274
     10 O         142.0943  142.4732  161.4970 O.2     1  UNL1       -0.2748
     11 N         141.6566  142.5375  164.0571 N.am    1  UNL1       -0.2749
     12 C         142.9295  141.7802  164.2938 C.3     1  UNL1        0.1000
     13 C         143.3471  141.4337  165.6922 C.3     1  UNL1        0.0670
     14 C         142.4918  141.8446  166.8539 C.ar    1  UNL1        0.0583
     15 N         142.9094  141.4981  168.2523 N.ar    1  UNL1       -0.2484
     16 C         142.0541  141.9089  169.4141 C.ar    1  UNL1        0.1023
     17 C         140.7811  142.6663  169.1773 C.ar    1  UNL1        0.0902
     18 C         140.3635  143.0128  167.7789 C.ar    1  UNL1        0.0040
     19 C         141.2188  142.6019  166.6172 C.ar    1  UNL1        0.0113
     20 C         140.8013  142.9484  165.2188 C.3     1  UNL1        0.1213
     21 C         139.9257  143.0772  170.3390 C.3     1  UNL1        0.4200
     22 F         139.0704  143.4881  171.5008 F       1  UNL1       -0.1658
     23 F         139.5078  141.6501  170.5361 F       1  UNL1       -0.1658
     24 F         140.3436  144.5043  170.1420 F       1  UNL1       -0.1658
     25 N         137.3169  140.8896  163.1115 N.3     1  UNL1       -0.2974
     26 H         136.5463  141.1819  163.7125 H       1  UNL1        0.1232
     27 C         138.4301  138.5456  162.9841 C.3     1  UNL1        0.1591
     28 C         139.0917  137.3831  163.6630 C.3     1  UNL1        0.1729
     29 O         139.3017  137.4020  165.1481 O.3     1  UNL1       -0.3511
     30 C         138.8501  138.5836  165.9544 C.3     1  UNL1        0.1437
     31 C         138.1885  139.7461  165.2755 C.3     1  UNL1        0.0503
     32 C         137.9785  139.7271  163.7904 C.3     1  UNL1        0.0865
     33 C         139.3119  138.9907  160.5812 C.3     1  UNL1        0.1742
     34 O         138.2200  138.5266  161.4991 O.3     1  UNL1       -0.3496
@<TRIPOS>BOND
     1    33    34    1
     2    34    27    1
     3    27    28    1
     4    28    29    1
     5    29    30    1
     6    30    31    1
     7    31    32    1
     8    32    25    1
     9     1    25    1
    10     1     2    1
    11     3     2    1
    12     3     4    1
    13     4     5    1
    14     5     6    1
    15     6     7    1
    16     7     9    1
    17     9    10    2
    18     9    11   am
    19    11    12    1
    20    12    13    1
    21    13    14    1
    22    14    15   ar
    23    15    16   ar
    24    16    17   ar
    25    17    21    1
    26    21    22    1
    27    21    23    1
    28    21    24    1
    29    17    18   ar
    30    18    19   ar
    31    19    20    1
    32     7     8    1
    33    32    27    1
    34     8     1    1
    35     7     3    1
    36    20    11    1
    37    19    14   ar
    38    25    26    1
@<TRIPOS>MOLECULE
*****
 34 38 0 0 0
SMALL
GASTEIGER

@<TRIPOS>ATOM
      1 C         139.5009  139.4526  166.4973 C.3     1  UNL1        0.0570
      2 C         139.1046  139.8791  167.8797 C.3     1  UNL1        0.0457
      3 C         140.3580  140.1327  168.6638 C.3     1  UNL1        0.1247
      4 O         140.8878  140.5530  170.0027 O.3     1  UNL1       -0.3557
      5 C         142.3861  140.5429  169.9323 C.3     1  UNL1        0.1426
      6 C         142.7824  140.1164  168.5499 C.3     1  UNL1        0.0431
      7 C         141.5290  139.8629  167.7659 C.3     1  UNL1        0.0976
      8 C         140.9992  139.4426  166.4270 C.3     1  UNL1        0.0269
      9 C         142.6999  139.5931  166.8680 C.2     1  UNL1        0.2274
     10 O         143.6431  138.4700  167.1826 O.2     1  UNL1       -0.2748
     11 N         142.9276  140.4464  165.6555 N.am    1  UNL1       -0.2749
     12 C         144.0984  140.1766  164.7577 C.3     1  UNL1        0.1000
     13 C         144.3261  141.0298  163.5452 C.3     1  UNL1        0.0670
     14 C         143.3828  142.1529  163.2307 C.ar    1  UNL1        0.0583
     15 N         143.6105  143.0062  162.0182 N.ar    1  UNL1       -0.2484
     16 C         142.6673  144.1293  161.7036 C.ar    1  UNL1        0.1023
     17 C         141.4964  144.3991  162.6015 C.ar    1  UNL1        0.0902
     18 C         141.2687  143.5458  163.8139 C.ar    1  UNL1        0.0040
     19 C         142.2120  142.4227  164.1285 C.ar    1  UNL1        0.0113
     20 C         141.9843  141.5695  165.3409 C.3     1  UNL1        0.1213
     21 C         140.5531  145.5222  162.2869 C.3     1  UNL1        0.4200
     22 F         139.6099  146.6453  161.9724 F       1  UNL1       -0.1658
     23 F         139.9881  145.4361  163.6738 F       1  UNL1       -0.1658
     24 F         141.1181  145.6083  160.9001 F       1  UNL1       -0.1658
     25 N         138.5634  139.0984  165.3812 N.3     1  UNL1       -0.2974
     26 H         138.9785  138.3081  164.8877 H       1  UNL1        0.1232
     27 C         138.0640  139.7133  162.9069 C.3     1  UNL1        0.1591
     28 C         137.7140  140.7371  161.8680 C.3     1  UNL1        0.1729
     29 O         137.5134  142.1698  162.2645 O.3     1  UNL1       -0.3511
     30 C         137.6628  142.5787  163.7000 C.3     1  UNL1        0.1437
     31 C         138.0128  141.5549  164.7389 C.3     1  UNL1        0.0503
     32 C         138.2134  140.1222  164.3423 C.3     1  UNL1        0.0865
     33 C         139.6483  137.7584  162.2602 C.3     1  UNL1        0.1742
     34 O         138.2646  138.2807  162.5103 O.3     1  UNL1       -0.3496
@<TRIPOS>BOND
     1    33    34    1
     2    34    27    1
     3    27    28    1
     4    28    29    1
     5    29    30    1
     6    30    31    1
     7    31    32    1
     8    32    25    1
     9     1    25    1
    10     1     2    1
    11     3     2    1
    12     3     4    1
    13     4     5    1
    14     5     6    1
    15     6     7    1
    16     7     9    1
    17     9    10    2
    18     9    11   am
    19    11    12    1
    20    12    13    1
    21    13    14    1
    22    14    15   ar
    23    15    16   ar
    24    16    17   ar
    25    17    21    1
    26    21    22    1
    27    21    23    1
    28    21    24    1
    29    17    18   ar
    30    18    19   ar
    31    19    20    1
    32     7     8    1
    33    32    27    1
    34     8     1    1
    35     7     3    1
    36    20    11    1
    37    19    14   ar
    38    25    26    1
@<TRIPOS>MOLECULE
*****
 34 38 0 0 0
SMALL
GASTEIGER

@<TRIPOS>ATOM
      1 C         140.2721  141.5862  161.5415 C.3     1  UNL1        0.0570
      2 C         139.0999  142.4468  161.1736 C.3     1  UNL1        0.0457
      3 C         139.4278  143.8616  161.5486 C.3     1  UNL1        0.1247
      4 O         138.9060  145.2679  161.5530 O.3     1  UNL1       -0.3557
      5 C         139.9584  146.1510  162.1553 C.3     1  UNL1        0.1426
      6 C         141.1306  145.2904  162.5231 C.3     1  UNL1        0.0431
      7 C         140.8027  143.8756  162.1482 C.3     1  UNL1        0.0976
      8 C         141.3245  142.4693  162.1437 C.3     1  UNL1        0.0269
      9 C         142.1776  143.8894  162.7477 C.2     1  UNL1        0.2274
     10 O         143.3365  144.4165  161.9544 O.2     1  UNL1       -0.2748
     11 N         142.3937  143.3762  164.1406 N.am    1  UNL1       -0.2749
     12 C         143.7685  143.3901  164.7401 C.3     1  UNL1        0.1000
     13 C         143.9846  142.8769  166.1329 C.3     1  UNL1        0.0670
     14 C         142.8257  142.3499  166.9262 C.ar    1  UNL1        0.0583
     15 N         143.0418  141.8367  168.3191 N.ar    1  UNL1       -0.2484
     16 C         141.8829  141.3096  169.1123 C.ar    1  UNL1        0.1023
     17 C         140.5080  141.2958  168.5127 C.ar    1  UNL1        0.0902
     18 C         140.2920  141.8090  167.1199 C.ar    1  UNL1        0.0040
     19 C         141.4508  142.3360  166.3266 C.ar    1  UNL1        0.0113
     20 C         141.2348  142.8492  164.9338 C.3     1  UNL1        0.1213
     21 C         139.3491  140.7687  169.3060 C.3     1  UNL1        0.4200
     22 F         138.1903  140.2417  170.0992 F       1  UNL1       -0.1658
     23 F         139.3567  139.5143  168.4836 F       1  UNL1       -0.1658
     24 F         139.3415  142.0232  170.1283 F       1  UNL1       -0.1658
     25 N         140.3741  140.1030  161.3420 N.3     1  UNL1       -0.2974
     26 H         139.6012  139.8339  160.7333 H       1  UNL1        0.1232
     27 C         141.2490  137.9957  162.5845 C.3     1  UNL1        0.1591
     28 C         141.2086  137.0753  163.7682 C.3     1  UNL1        0.1729
     29 O         140.2529  137.3417  164.8932 O.3     1  UNL1       -0.3511
     30 C         139.3376  138.5287  164.8345 C.3     1  UNL1        0.1437
     31 C         139.3780  139.4491  163.6507 C.3     1  UNL1        0.0503
     32 C         140.3337  139.1826  162.5257 C.3     1  UNL1        0.0865
     33 C         143.6714  137.9833  161.6453 C.3     1  UNL1        0.1742
     34 O         142.2047  137.7292  161.4595 O.3     1  UNL1       -0.3496
@<TRIPOS>BOND
     1    33    34    1
     2    34    27    1
     3    27    28    1
     4    28    29    1
     5    29    30    1
     6    30    31    1
     7    31    32    1
     8    32    25    1
     9     1    25    1
    10     1     2    1
    11     3     2    1
    12     3     4    1
    13     4     5    1
    14     5     6    1
    15     6     7    1
    16     7     9    1
    17     9    10    2
    18     9    11   am
    19    11    12    1
    20    12    13    1
    21    13    14    1
    22    14    15   ar
    23    15    16   ar
    24    16    17   ar
    25    17    21    1
    26    21    22    1
    27    21    23    1
    28    21    24    1
    29    17    18   ar
    30    18    19   ar
    31    19    20    1
    32     7     8    1
    33    32    27    1
    34     8     1    1
    35     7     3    1
    36    20    11    1
    37    19    14   ar
    38    25    26    1
@<TRIPOS>MOLECULE
*****
 34 38 0 0 0
SMALL
GASTEIGER

@<TRIPOS>ATOM
      1 C         139.2193  138.2384  165.0961 C.3     1  UNL1        0.0570
      2 C         138.2574  138.5749  166.1967 C.3     1  UNL1        0.0457
      3 C         139.0179  139.2882  167.2751 C.3     1  UNL1        0.1247
      4 O         138.8934  139.9371  168.6217 O.3     1  UNL1       -0.3557
      5 C         140.2485  140.4425  169.0198 C.3     1  UNL1        0.1426
      6 C         141.2104  140.1060  167.9192 C.3     1  UNL1        0.0431
      7 C         140.4499  139.3927  166.8408 C.3     1  UNL1        0.0976
      8 C         140.5744  138.7438  165.4942 C.3     1  UNL1        0.0269
      9 C         141.8819  139.4971  166.4066 C.2     1  UNL1        0.2274
     10 O         142.8949  138.5178  166.9212 O.2     1  UNL1       -0.2748
     11 N         142.3008  140.5807  165.4578 N.am    1  UNL1       -0.2749
     12 C         143.7327  140.6851  165.0236 C.3     1  UNL1        0.1000
     13 C         144.1516  141.7688  164.0748 C.3     1  UNL1        0.0670
     14 C         143.1385  142.7480  163.5602 C.ar    1  UNL1        0.0583
     15 N         143.5575  143.8317  162.6114 N.ar    1  UNL1       -0.2484
     16 C         142.5444  144.8109  162.0968 C.ar    1  UNL1        0.1023
     17 C         141.1124  144.7065  162.5311 C.ar    1  UNL1        0.0902
     18 C         140.6935  143.6228  163.4799 C.ar    1  UNL1        0.0040
     19 C         141.7066  142.6436  163.9944 C.ar    1  UNL1        0.0113
     20 C         141.2877  141.5600  164.9432 C.3     1  UNL1        0.1213
     21 C         140.0993  145.6857  162.0165 C.3     1  UNL1        0.4200
     22 F         139.0862  146.6650  161.5020 F       1  UNL1       -0.1658
     23 F         140.8866  145.8338  160.7484 F       1  UNL1       -0.1658
     24 F         139.3120  145.5376  163.2847 F       1  UNL1       -0.1658
     25 N         138.8850  137.5223  163.8212 N.3     1  UNL1       -0.2974
     26 H         139.5370  136.7419  163.7421 H       1  UNL1        0.1232
     27 C         140.1415  138.1562  161.6373 C.3     1  UNL1        0.1591
     28 C         140.1853  138.8913  160.3305 C.3     1  UNL1        0.1729
     29 O         139.0165  139.7275  159.9008 O.3     1  UNL1       -0.3511
     30 C         137.8038  139.8286  160.7778 C.3     1  UNL1        0.1437
     31 C         137.7600  139.0935  162.0846 C.3     1  UNL1        0.0503
     32 C         138.9288  138.2573  162.5144 C.3     1  UNL1        0.0865
     33 C         142.5677  137.9803  162.5496 C.3     1  UNL1        0.1742
     34 O         141.3102  137.3201  162.0671 O.3     1  UNL1       -0.3496
@<TRIPOS>BOND
     1    33    34    1
     2    34    27    1
     3    27    28    1
     4    28    29    1
     5    29    30    1
     6    30    31    1
     7    31    32    1
     8    32    25    1
     9     1    25    1
    10     1     2    1
    11     3     2    1
    12     3     4    1
    13     4     5    1
    14     5     6    1
    15     6     7    1
    16     7     9    1
    17     9    10    2
    18     9    11   am
    19    11    12    1
    20    12    13    1
    21    13    14    1
    22    14    15   ar
    23    15    16   ar
    24    16    17   ar
    25    17    21    1
    26    21    22    1
    27    21    23    1
    28    21    24    1
    29    17    18   ar
    30    18    19   ar
    31    19    20    1
    32     7     8    1
    33    32    27    1
    34     8     1    1
    35     7     3    1
    36    20    11    1
    37    19    14   ar
    38    25    26    1
@<TRIPOS>MOLECULE
*****
 34 38 0 0 0
SMALL
GASTEIGER

@<TRIPOS>ATOM
      1 C         142.6737  142.6957  159.9769 C.3     1  UNL1        0.0570
      2 C         141.3766  143.2840  159.5064 C.3     1  UNL1        0.0457
      3 C         140.8996  144.2494  160.5506 C.3     1  UNL1        0.1247
      4 O         139.8032  145.2097  160.9052 O.3     1  UNL1       -0.3557
      5 C         140.1279  145.8116  162.2402 C.3     1  UNL1        0.1426
      6 C         141.4251  145.2234  162.7107 C.3     1  UNL1        0.0431
      7 C         141.9020  144.2579  161.6665 C.3     1  UNL1        0.0976
      8 C         142.9985  143.2977  161.3119 C.3     1  UNL1        0.0269
      9 C         142.9044  144.2664  162.7824 C.2     1  UNL1        0.2274
     10 O         144.1328  145.1212  162.6806 O.2     1  UNL1       -0.2748
     11 N         142.6784  143.4200  164.0000 N.am    1  UNL1       -0.2749
     12 C         143.6808  143.4284  165.1159 C.3     1  UNL1        0.1000
     13 C         143.4548  142.5820  166.3334 C.3     1  UNL1        0.0670
     14 C         142.2264  141.7272  166.4351 C.ar    1  UNL1        0.0583
     15 N         142.0004  140.8808  167.6528 N.ar    1  UNL1       -0.2484
     16 C         140.7721  140.0259  167.7545 C.ar    1  UNL1        0.1023
     17 C         139.7697  140.0175  166.6386 C.ar    1  UNL1        0.0902
     18 C         139.9957  140.8639  165.4210 C.ar    1  UNL1        0.0040
     19 C         141.2240  141.7187  165.3193 C.ar    1  UNL1        0.0113
     20 C         141.4500  142.5651  164.1018 C.3     1  UNL1        0.1213
     21 C         138.5413  139.1627  166.7403 C.3     1  UNL1        0.4200
     22 F         137.3129  138.3078  166.8421 F       1  UNL1       -0.1658
     23 F         138.4680  139.4432  168.2120 F       1  UNL1       -0.1658
     24 F         138.6146  138.8822  165.2686 F       1  UNL1       -0.1658
     25 N         143.5009  141.6833  159.2415 N.3     1  UNL1       -0.2974
     26 H         143.3029  141.8065  158.2486 H       1  UNL1        0.1232
     27 C         144.0071  139.6196  160.7365 C.3     1  UNL1        0.1591
     28 C         143.8423  138.1585  161.0330 C.3     1  UNL1        0.1729
     29 O         143.0064  137.2998  160.1308 O.3     1  UNL1       -0.3511
     30 C         142.3353  137.9023  158.9321 C.3     1  UNL1        0.1437
     31 C         142.5002  139.3635  158.6357 C.3     1  UNL1        0.0503
     32 C         143.3361  140.2221  159.5380 C.3     1  UNL1        0.0865
     33 C         144.6385  140.4271  163.1239 C.3     1  UNL1        0.1742
     34 O         144.8430  140.4783  161.6387 O.3     1  UNL1       -0.3496
@<TRIPOS>BOND
     1    33    34    1
     2    34    27    1
     3    27    28    1
     4    28    29    1
     5    29    30    1
     6    30    31    1
     7    31    32    1
     8    32    25    1
     9     1    25    1
    10     1     2    1
    11     3     2    1
    12     3     4    1
    13     4     5    1
    14     5     6    1
    15     6     7    1
    16     7     9    1
    17     9    10    2
    18     9    11   am
    19    11    12    1
    20    12    13    1
    21    13    14    1
    22    14    15   ar
    23    15    16   ar
    24    16    17   ar
    25    17    21    1
    26    21    22    1
    27    21    23    1
    28    21    24    1
    29    17    18   ar
    30    18    19   ar
    31    19    20    1
    32     7     8    1
    33    32    27    1
    34     8     1    1
    35     7     3    1
    36    20    11    1
    37    19    14   ar
    38    25    26    1
@<TRIPOS>MOLECULE
*****
 34 38 0 0 0
SMALL
GASTEIGER

@<TRIPOS>ATOM
      1 C         140.8081  141.5777  162.4170 C.3     1  UNL1        0.0570
      2 C         139.3765  141.3553  162.0286 C.3     1  UNL1        0.0457
      3 C         139.0191  139.9383  162.3672 C.3     1  UNL1        0.1247
      4 O         137.9134  138.9251  162.3364 O.3     1  UNL1       -0.3557
      5 C         138.4409  137.6457  162.9150 C.3     1  UNL1        0.1426
      6 C         139.8726  137.8681  163.3034 C.3     1  UNL1        0.0431
      7 C         140.2299  139.2850  162.9648 C.3     1  UNL1        0.0976
      8 C         141.3356  140.2982  162.9956 C.3     1  UNL1        0.0269
      9 C         141.4407  138.6317  163.5624 C.2     1  UNL1        0.2274
     10 O         142.2625  137.6822  162.7420 O.2     1  UNL1       -0.2748
     11 N         141.8298  138.9280  164.9805 N.am    1  UNL1       -0.2749
     12 C         143.0406  138.2747  165.5781 C.3     1  UNL1        0.1000
     13 C         143.4296  138.5710  166.9961 C.3     1  UNL1        0.0670
     14 C         142.6079  139.5205  167.8166 C.ar    1  UNL1        0.0583
     15 N         142.9970  139.8168  169.2347 N.ar    1  UNL1       -0.2484
     16 C         142.1752  140.7663  170.0551 C.ar    1  UNL1        0.1023
     17 C         140.9643  141.4196  169.4574 C.ar    1  UNL1        0.0902
     18 C         140.5753  141.1233  168.0394 C.ar    1  UNL1        0.0040
     19 C         141.3971  140.1738  167.2190 C.ar    1  UNL1        0.0113
     20 C         141.0081  139.8775  165.8009 C.3     1  UNL1        0.1213
     21 C         140.1426  142.3691  170.2778 C.3     1  UNL1        0.4200
     22 F         139.3208  143.3186  171.0982 F       1  UNL1       -0.1658
     23 F         139.9576  143.2475  169.0760 F       1  UNL1       -0.1658
     24 F         140.3275  141.4908  171.4796 F       1  UNL1       -0.1658
     25 N         141.5773  142.8553  162.2552 N.3     1  UNL1       -0.2974
     26 H         141.8521  143.1541  163.1910 H       1  UNL1        0.1232
     27 C         140.3138  145.1187  162.4288 C.3     1  UNL1        0.1591
     28 C         139.6717  146.3021  161.7674 C.3     1  UNL1        0.1729
     29 O         139.6511  146.4054  160.2712 O.3     1  UNL1       -0.3511
     30 C         140.2727  145.3253  159.4362 C.3     1  UNL1        0.1437
     31 C         140.9147  144.1419  160.0975 C.3     1  UNL1        0.0503
     32 C         140.9353  144.0387  161.5939 C.3     1  UNL1        0.0865
     33 C         139.1260  144.5138  164.6589 C.3     1  UNL1        0.1742
     34 O         140.3343  145.0154  163.9251 O.3     1  UNL1       -0.3496
@<TRIPOS>BOND
     1    33    34    1
     2    34    27    1
     3    27    28    1
     4    28    29    1
     5    29    30    1
     6    30    31    1
     7    31    32    1
     8    32    25    1
     9     1    25    1
    10     1     2    1
    11     3     2    1
    12     3     4    1
    13     4     5    1
    14     5     6    1
    15     6     7    1
    16     7     9    1
    17     9    10    2
    18     9    11   am
    19    11    12    1
    20    12    13    1
    21    13    14    1
    22    14    15   ar
    23    15    16   ar
    24    16    17   ar
    25    17    21    1
    26    21    22    1
    27    21    23    1
    28    21    24    1
    29    17    18   ar
    30    18    19   ar
    31    19    20    1
    32     7     8    1
    33    32    27    1
    34     8     1    1
    35     7     3    1
    36    20    11    1
    37    19    14   ar
    38    25    26    1
@<TRIPOS>MOLECULE
*****
 34 38 0 0 0
SMALL
GASTEIGER

@<TRIPOS>ATOM
      1 C         140.5632  141.5400  161.1809 C.3     1  UNL1        0.0570
      2 C         139.0901  141.3063  161.0219 C.3     1  UNL1        0.0457
      3 C         138.7715  139.9541  161.5877 C.3     1  UNL1        0.1247
      4 O         137.6642  138.9740  161.8391 O.3     1  UNL1       -0.3557
      5 C         138.2561  137.7662  162.5032 C.3     1  UNL1        0.1426
      6 C         139.7292  137.9999  162.6622 C.3     1  UNL1        0.0431
      7 C         140.0478  139.3521  162.0964 C.3     1  UNL1        0.0976
      8 C         141.1551  140.3322  161.8450 C.3     1  UNL1        0.0269
      9 C         141.3240  138.7501  162.6052 C.2     1  UNL1        0.2274
     10 O         142.2094  137.9734  161.6763 O.2     1  UNL1       -0.2748
     11 N         141.7149  138.9248  164.0428 N.am    1  UNL1       -0.2749
     12 C         142.9911  138.3228  164.5515 C.3     1  UNL1        0.1000
     13 C         143.3819  138.4975  165.9891 C.3     1  UNL1        0.0670
     14 C         142.4965  139.2742  166.9180 C.ar    1  UNL1        0.0583
     15 N         142.8874  139.4489  168.3556 N.ar    1  UNL1       -0.2484
     16 C         142.0019  140.2256  169.2845 C.ar    1  UNL1        0.1023
     17 C         140.7257  140.8276  168.7757 C.ar    1  UNL1        0.0902
     18 C         140.3349  140.6529  167.3381 C.ar    1  UNL1        0.0040
     19 C         141.2203  139.8762  166.4093 C.ar    1  UNL1        0.0113
     20 C         140.8295  139.7015  164.9717 C.3     1  UNL1        0.1213
     21 C         139.8402  141.6043  169.7046 C.3     1  UNL1        0.4200
     22 F         138.9548  142.3810  170.6334 F       1  UNL1       -0.1658
     23 F         140.1872  142.8695  168.9774 F       1  UNL1       -0.1658
     24 F         139.4933  140.3391  170.4318 F       1  UNL1       -0.1658
     25 N         141.3129  142.7662  160.7513 N.3     1  UNL1       -0.2974
     26 H         142.0172  142.4605  160.0799 H       1  UNL1        0.1232
     27 C         141.2395  144.5224  162.6645 C.3     1  UNL1        0.1591
     28 C         141.9492  145.3631  163.6840 C.3     1  UNL1        0.1729
     29 O         143.4420  145.2884  163.8099 O.3     1  UNL1       -0.3511
     30 C         144.2252  144.3730  162.9162 C.3     1  UNL1        0.1437
     31 C         143.5155  143.5322  161.8967 C.3     1  UNL1        0.0503
     32 C         142.0226  143.6069  161.7708 C.3     1  UNL1        0.0865
     33 C         138.8754  144.1781  163.6856 C.3     1  UNL1        0.1742
     34 O         139.7467  144.5970  162.5387 O.3     1  UNL1       -0.3496
@<TRIPOS>BOND
     1    33    34    1
     2    34    27    1
     3    27    28    1
     4    28    29    1
     5    29    30    1
     6    30    31    1
     7    31    32    1
     8    32    25    1
     9     1    25    1
    10     1     2    1
    11     3     2    1
    12     3     4    1
    13     4     5    1
    14     5     6    1
    15     6     7    1
    16     7     9    1
    17     9    10    2
    18     9    11   am
    19    11    12    1
    20    12    13    1
    21    13    14    1
    22    14    15   ar
    23    15    16   ar
    24    16    17   ar
    25    17    21    1
    26    21    22    1
    27    21    23    1
    28    21    24    1
    29    17    18   ar
    30    18    19   ar
    31    19    20    1
    32     7     8    1
    33    32    27    1
    34     8     1    1
    35     7     3    1
    36    20    11    1
    37    19    14   ar
    38    25    26    1
