@<TRIPOS>MOLECULE
*****
 36 40 0 0 0
SMALL
GASTEIGER

@<TRIPOS>ATOM
      1 N         143.0444  144.1527  162.5445 N.3     1  UNL1       -0.2703
      2 C         142.2449  143.6695  161.3710 C.3     1  UNL1        0.0736
      3 C         140.7839  143.9952  161.2735 C.3     1  UNL1        0.0331
      4 C         140.1224  144.8042  162.3497 C.3     1  UNL1        0.0570
      5 C         140.9220  145.2874  163.5233 C.3     1  UNL1        0.0331
      6 C         142.3830  144.9617  163.6207 C.3     1  UNL1        0.0736
      7 N         138.6615  145.1299  162.2523 N.3     1  UNL1       -0.2934
      8 H         138.4051  145.0416  161.2690 H       1  UNL1        0.1236
      9 C         137.6612  144.3311  163.0341 C.3     1  UNL1        0.1152
     10 C         137.8447  142.8512  163.1958 C.ar    1  UNL1        0.0782
     11 C         138.1736  142.2790  164.5428 C.ar    1  UNL1        0.0562
     12 C         138.3571  140.7990  164.7044 C.ar    1  UNL1        0.1752
     13 C         138.2118  139.8913  163.5191 C.ar    1  UNL1        0.1914
     14 C         137.8829  140.4636  162.1721 C.ar    1  UNL1        0.1384
     15 N         137.6994  141.9435  162.0104 N.ar    1  UNL1       -0.2434
     16 O         138.3953  138.4114  163.6807 O.3     1  UNL1       -0.4668
     17 C         138.7242  137.8391  165.0277 C.3     1  UNL1        0.2527
     18 C         138.8695  138.7468  166.2130 C.3     1  UNL1        0.2526
     19 O         138.6860  140.2267  166.0514 O.3     1  UNL1       -0.4683
     20 C         144.5053  143.8270  162.6420 C.3     1  UNL1        0.1064
     21 C         144.9415  142.4643  163.0926 C.3     1  UNL1        0.1523
     22 O         146.3352  141.9899  162.8052 O.3     1  UNL1       -0.3785
     23 H         146.8190  142.6798  162.3249 H       1  UNL1        0.2108
     24 C         143.2818  138.7911  161.0919 C.ar    1  UNL1        0.2250
     25 C         142.3244  137.9030  161.8299 C.ar    1  UNL1        0.0593
     26 C         141.9202  138.2393  163.2347 C.ar    1  UNL1        0.0254
     27 C         142.4734  139.4637  163.9016 C.ar    1  UNL1        0.0991
     28 N         142.0692  139.8000  165.3064 N.ar    1  UNL1       -0.2400
     29 C         142.6224  141.0244  165.9733 C.ar    1  UNL1        0.1282
     30 C         143.5799  141.9126  165.2354 C.ar    1  UNL1        0.1590
     31 F         144.1331  143.1369  165.9022 F       1  UNL1       -0.2027
     32 C         143.9841  141.5763  163.8305 C.ar    1  UNL1        0.0538
     33 C         143.4308  140.3518  163.1636 C.ar    1  UNL1        0.1025
     34 N         143.8350  140.0155  161.7588 N.ar    1  UNL1       -0.2103
     35 C         142.6425  138.0883  158.6738 C.3     1  UNL1        0.2542
     36 O         143.6860  138.4548  159.6871 O.3     1  UNL1       -0.4561
@<TRIPOS>BOND
     1    35    36    1
     2    36    24    1
     3    24    25   ar
     4    25    26   ar
     5    26    27   ar
     6    27    28   ar
     7    28    29   ar
     8    29    30   ar
     9    30    31    1
    10    30    32   ar
    11    32    21    1
    12    21    22    1
    13    21    20    1
    14    20     1    1
    15     1     2    1
    16     2     3    1
    17     3     4    1
    18     4     7    1
    19     7     9    1
    20     9    10    1
    21    10    11   ar
    22    11    12   ar
    23    12    13   ar
    24    13    14   ar
    25    14    15   ar
    26    13    16    1
    27    16    17    1
    28    17    18    1
    29    18    19    1
    30     4     5    1
    31     5     6    1
    32    32    33   ar
    33    33    34   ar
    34    34    24   ar
    35    33    27   ar
    36     6     1    1
    37    15    10   ar
    38    19    12    1
    39    22    23    1
    40     7     8    1
@<TRIPOS>MOLECULE
*****
 36 40 0 0 0
SMALL
GASTEIGER

@<TRIPOS>ATOM
      1 N         143.0917  144.1652  162.5121 N.3     1  UNL1       -0.2703
      2 C         142.2590  143.5962  161.4017 C.3     1  UNL1        0.0736
      3 C         140.7984  143.9261  161.3149 C.3     1  UNL1        0.0331
      4 C         140.1703  144.8249  162.3385 C.3     1  UNL1        0.0570
      5 C         141.0029  145.3939  163.4489 C.3     1  UNL1        0.0331
      6 C         142.4637  145.0640  163.5357 C.3     1  UNL1        0.0736
      7 N         138.7096  145.1548  162.2516 N.3     1  UNL1       -0.2934
      8 H         138.4404  145.0444  161.2740 H       1  UNL1        0.1236
      9 C         137.7159  144.3791  163.0646 C.3     1  UNL1        0.1152
     10 C         137.9653  142.9325  163.3731 C.ar    1  UNL1        0.0782
     11 C         137.8112  141.8988  162.2971 C.ar    1  UNL1        0.0562
     12 C         138.0606  140.4522  162.6057 C.ar    1  UNL1        0.1752
     13 C         138.4643  140.0394  163.9901 C.ar    1  UNL1        0.1914
     14 C         138.6184  141.0731  165.0660 C.ar    1  UNL1        0.1384
     15 N         138.3690  142.5197  164.7575 N.ar    1  UNL1       -0.2434
     16 O         138.7137  138.5927  164.2987 O.3     1  UNL1       -0.4668
     17 C         138.5596  137.5590  163.2227 C.3     1  UNL1        0.2527
     18 C         138.1559  137.9719  161.8383 C.3     1  UNL1        0.2526
     19 O         137.9065  139.4184  161.5298 O.3     1  UNL1       -0.4683
     20 C         144.5524  143.8353  162.5990 C.3     1  UNL1        0.1064
     21 C         145.0021  142.6118  163.3411 C.3     1  UNL1        0.1523
     22 O         146.2298  141.8737  162.8961 O.3     1  UNL1       -0.3785
     23 H         146.6099  142.3161  162.1211 H       1  UNL1        0.2108
     24 C         142.9068  138.6325  163.1842 C.ar    1  UNL1        0.2250
     25 C         142.1289  138.1472  164.3713 C.ar    1  UNL1        0.0593
     26 C         142.0495  138.9883  165.6108 C.ar    1  UNL1        0.0254
     27 C         142.7479  140.3147  165.6631 C.ar    1  UNL1        0.0991
     28 N         142.6685  141.1557  166.9026 N.ar    1  UNL1       -0.2400
     29 C         143.3670  142.4821  166.9550 C.ar    1  UNL1        0.1282
     30 C         144.1449  142.9675  165.7678 C.ar    1  UNL1        0.1590
     31 F         144.8433  144.2939  165.8201 F       1  UNL1       -0.2027
     32 C         144.2243  142.1265  164.5283 C.ar    1  UNL1        0.0538
     33 C         143.5258  140.8000  164.4760 C.ar    1  UNL1        0.1025
     34 N         143.6052  139.9589  163.2365 N.ar    1  UNL1       -0.2103
     35 C         142.0561  138.0560  160.7980 C.3     1  UNL1        0.2542
     36 O         142.9862  137.7915  161.9447 O.3     1  UNL1       -0.4561
@<TRIPOS>BOND
     1    35    36    1
     2    36    24    1
     3    24    25   ar
     4    25    26   ar
     5    26    27   ar
     6    27    28   ar
     7    28    29   ar
     8    29    30   ar
     9    30    31    1
    10    30    32   ar
    11    32    21    1
    12    21    22    1
    13    21    20    1
    14    20     1    1
    15     1     2    1
    16     2     3    1
    17     3     4    1
    18     4     7    1
    19     7     9    1
    20     9    10    1
    21    10    11   ar
    22    11    12   ar
    23    12    13   ar
    24    13    14   ar
    25    14    15   ar
    26    13    16    1
    27    16    17    1
    28    17    18    1
    29    18    19    1
    30     4     5    1
    31     5     6    1
    32    32    33   ar
    33    33    34   ar
    34    34    24   ar
    35    33    27   ar
    36     6     1    1
    37    15    10   ar
    38    19    12    1
    39    22    23    1
    40     7     8    1
@<TRIPOS>MOLECULE
*****
 36 40 0 0 0
SMALL
GASTEIGER

@<TRIPOS>ATOM
      1 N         137.9493  142.9913  162.9458 N.3     1  UNL1       -0.2703
      2 C         138.1299  142.7238  161.4810 C.3     1  UNL1        0.0736
      3 C         138.0847  141.3163  160.9644 C.3     1  UNL1        0.0331
      4 C         137.8587  140.1762  161.9127 C.3     1  UNL1        0.0570
      5 C         137.6781  140.4437  163.3776 C.3     1  UNL1        0.0331
      6 C         137.7234  141.8513  163.8941 C.3     1  UNL1        0.0736
      7 N         137.8134  138.7687  161.3962 N.3     1  UNL1       -0.2934
      8 H         137.2642  138.7879  160.5369 H       1  UNL1        0.1236
      9 C         139.0883  138.0448  161.0791 C.3     1  UNL1        0.1152
     10 C         140.2914  138.2251  161.9565 C.ar    1  UNL1        0.0782
     11 C         141.3578  139.2084  161.5744 C.ar    1  UNL1        0.0562
     12 C         142.5610  139.3887  162.4520 C.ar    1  UNL1        0.1752
     13 C         142.6977  138.5857  163.7115 C.ar    1  UNL1        0.1914
     14 C         141.6313  137.6025  164.0937 C.ar    1  UNL1        0.1384
     15 N         140.4282  137.4222  163.2162 N.ar    1  UNL1       -0.2434
     16 O         143.9008  138.7660  164.5891 O.3     1  UNL1       -0.4668
     17 C         144.9672  139.7493  164.2070 C.3     1  UNL1        0.2527
     18 C         144.8305  140.5522  162.9473 C.3     1  UNL1        0.2526
     19 O         143.6274  140.3719  162.0698 O.3     1  UNL1       -0.4683
     20 C         137.9946  144.3987  163.4624 C.3     1  UNL1        0.1064
     21 C         138.9843  144.7764  164.5245 C.3     1  UNL1        0.1523
     22 O         138.5225  145.4906  165.7601 O.3     1  UNL1       -0.3785
     23 H         137.5637  145.6300  165.7137 H       1  UNL1        0.2108
     24 C         140.9666  141.8567  167.3165 C.ar    1  UNL1        0.2250
     25 C         142.4180  141.5203  167.1430 C.ar    1  UNL1        0.0593
     26 C         143.2087  142.1571  166.0387 C.ar    1  UNL1        0.0254
     27 C         142.5479  143.1303  165.1080 C.ar    1  UNL1        0.0991
     28 N         143.3386  143.7671  164.0038 N.ar    1  UNL1       -0.2400
     29 C         142.6778  144.7403  163.0731 C.ar    1  UNL1        0.1282
     30 C         141.2264  145.0768  163.2467 C.ar    1  UNL1        0.1590
     31 F         140.5656  146.0500  162.3160 F       1  UNL1       -0.2027
     32 C         140.4357  144.4400  164.3509 C.ar    1  UNL1        0.0538
     33 C         141.0965  143.4667  165.2816 C.ar    1  UNL1        0.1025
     34 N         140.3059  142.8299  166.3859 N.ar    1  UNL1       -0.2103
     35 C         140.7151  140.0130  169.1296 C.3     1  UNL1        0.2542
     36 O         140.1760  141.2199  168.4208 O.3     1  UNL1       -0.4561
@<TRIPOS>BOND
     1    35    36    1
     2    36    24    1
     3    24    25   ar
     4    25    26   ar
     5    26    27   ar
     6    27    28   ar
     7    28    29   ar
     8    29    30   ar
     9    30    31    1
    10    30    32   ar
    11    32    21    1
    12    21    22    1
    13    21    20    1
    14    20     1    1
    15     1     2    1
    16     2     3    1
    17     3     4    1
    18     4     7    1
    19     7     9    1
    20     9    10    1
    21    10    11   ar
    22    11    12   ar
    23    12    13   ar
    24    13    14   ar
    25    14    15   ar
    26    13    16    1
    27    16    17    1
    28    17    18    1
    29    18    19    1
    30     4     5    1
    31     5     6    1
    32    32    33   ar
    33    33    34   ar
    34    34    24   ar
    35    33    27   ar
    36     6     1    1
    37    15    10   ar
    38    19    12    1
    39    22    23    1
    40     7     8    1
@<TRIPOS>MOLECULE
*****
 36 40 0 0 0
SMALL
GASTEIGER

@<TRIPOS>ATOM
      1 N         142.0988  138.2453  162.6357 N.3     1  UNL1       -0.2703
      2 C         142.6275  138.4582  164.0232 C.3     1  UNL1        0.0736
      3 C         143.8330  139.3235  164.2419 C.3     1  UNL1        0.0331
      4 C         144.5099  139.9760  163.0730 C.3     1  UNL1        0.0570
      5 C         143.9811  139.7632  161.6855 C.3     1  UNL1        0.0331
      6 C         142.7755  138.8978  161.4669 C.3     1  UNL1        0.0736
      7 N         145.7154  140.8413  163.2916 N.3     1  UNL1       -0.2934
      8 H         146.2113  140.8858  162.4014 H       1  UNL1        0.1236
      9 C         145.5482  142.2548  163.7652 C.3     1  UNL1        0.1152
     10 C         144.2732  142.9937  163.4852 C.ar    1  UNL1        0.0782
     11 C         143.9419  143.4134  162.0837 C.ar    1  UNL1        0.0562
     12 C         142.6668  144.1524  161.8038 C.ar    1  UNL1        0.1752
     13 C         141.7232  144.4715  162.9252 C.ar    1  UNL1        0.1914
     14 C         142.0545  144.0518  164.3266 C.ar    1  UNL1        0.1384
     15 N         143.3295  143.3129  164.6066 N.ar    1  UNL1       -0.2434
     16 O         140.4482  145.2104  162.6452 O.3     1  UNL1       -0.4668
     17 C         140.1168  145.6302  161.2437 C.3     1  UNL1        0.2527
     18 C         141.0606  145.3110  160.1223 C.3     1  UNL1        0.2526
     19 O         142.3355  144.5721  160.4023 O.3     1  UNL1       -0.4683
     20 C         140.8932  137.3800  162.4171 C.3     1  UNL1        0.1064
     21 C         139.5240  137.9924  162.3971 C.3     1  UNL1        0.1523
     22 O         138.6073  137.7420  161.2365 O.3     1  UNL1       -0.3785
     23 H         139.0509  137.1688  160.5919 H       1  UNL1        0.2108
     24 C         138.1859  142.2194  161.6279 C.ar    1  UNL1        0.2250
     25 C         137.7335  143.0821  162.7685 C.ar    1  UNL1        0.0593
     26 C         137.7271  142.5359  164.1655 C.ar    1  UNL1        0.0254
     27 C         138.1731  141.1269  164.4219 C.ar    1  UNL1        0.0991
     28 N         138.1667  140.5807  165.8189 N.ar    1  UNL1       -0.2400
     29 C         138.6128  139.1717  166.0753 C.ar    1  UNL1        0.1282
     30 C         139.0652  138.3089  164.9347 C.ar    1  UNL1        0.1590
     31 F         139.5113  136.8999  165.1911 F       1  UNL1       -0.2027
     32 C         139.0716  138.8551  163.5377 C.ar    1  UNL1        0.0538
     33 C         138.6255  140.2642  163.2813 C.ar    1  UNL1        0.1025
     34 N         138.6319  140.8104  161.8843 N.ar    1  UNL1       -0.2103
     35 C         139.2076  142.2789  159.2399 C.3     1  UNL1        0.2542
     36 O         138.1922  142.7656  160.2309 O.3     1  UNL1       -0.4561
@<TRIPOS>BOND
     1    35    36    1
     2    36    24    1
     3    24    25   ar
     4    25    26   ar
     5    26    27   ar
     6    27    28   ar
     7    28    29   ar
     8    29    30   ar
     9    30    31    1
    10    30    32   ar
    11    32    21    1
    12    21    22    1
    13    21    20    1
    14    20     1    1
    15     1     2    1
    16     2     3    1
    17     3     4    1
    18     4     7    1
    19     7     9    1
    20     9    10    1
    21    10    11   ar
    22    11    12   ar
    23    12    13   ar
    24    13    14   ar
    25    14    15   ar
    26    13    16    1
    27    16    17    1
    28    17    18    1
    29    18    19    1
    30     4     5    1
    31     5     6    1
    32    32    33   ar
    33    33    34   ar
    34    34    24   ar
    35    33    27   ar
    36     6     1    1
    37    15    10   ar
    38    19    12    1
    39    22    23    1
    40     7     8    1
@<TRIPOS>MOLECULE
*****
 36 40 0 0 0
SMALL
GASTEIGER

@<TRIPOS>ATOM
      1 N         143.1916  143.4154  161.7501 N.3     1  UNL1       -0.2703
      2 C         142.1717  143.2606  160.6612 C.3     1  UNL1        0.0736
      3 C         140.8089  143.8673  160.8182 C.3     1  UNL1        0.0331
      4 C         140.4660  144.6288  162.0643 C.3     1  UNL1        0.0570
      5 C         141.4859  144.7836  163.1533 C.3     1  UNL1        0.0331
      6 C         142.8487  144.1768  162.9961 C.3     1  UNL1        0.0736
      7 N         139.1032  145.2355  162.2214 N.3     1  UNL1       -0.2934
      8 H         138.7493  145.4119  161.2811 H       1  UNL1        0.1236
      9 C         138.0294  144.4879  162.9549 C.3     1  UNL1        0.1152
     10 C         138.2180  143.0372  163.2861 C.ar    1  UNL1        0.0782
     11 C         137.9531  141.9897  162.2456 C.ar    1  UNL1        0.0562
     12 C         138.1417  140.5389  162.5768 C.ar    1  UNL1        0.1752
     13 C         138.5951  140.1356  163.9486 C.ar    1  UNL1        0.1914
     14 C         138.8600  141.1830  164.9891 C.ar    1  UNL1        0.1384
     15 N         138.6714  142.6338  164.6579 N.ar    1  UNL1       -0.2434
     16 O         138.7837  138.6848  164.2798 O.3     1  UNL1       -0.4668
     17 C         138.5189  137.6374  163.2393 C.3     1  UNL1        0.2527
     18 C         138.0654  138.0407  161.8675 C.3     1  UNL1        0.2526
     19 O         137.8768  139.4915  161.5363 O.3     1  UNL1       -0.4683
     20 C         144.5544  142.8087  161.5931 C.3     1  UNL1        0.1064
     21 C         145.0167  141.7463  162.5458 C.3     1  UNL1        0.1523
     22 O         146.3671  141.8528  163.1901 O.3     1  UNL1       -0.3785
     23 H         146.8080  142.6612  162.8851 H       1  UNL1        0.2108
     24 C         143.0618  141.4099  166.5850 C.ar    1  UNL1        0.2250
     25 C         142.1738  140.2410  166.8933 C.ar    1  UNL1        0.0593
     26 C         141.9374  139.1842  165.8554 C.ar    1  UNL1        0.0254
     27 C         142.5891  139.2964  164.5090 C.ar    1  UNL1        0.0991
     28 N         142.3527  138.2396  163.4710 N.ar    1  UNL1       -0.2400
     29 C         143.0043  138.3517  162.1246 C.ar    1  UNL1        0.1282
     30 C         143.8924  139.5207  161.8162 C.ar    1  UNL1        0.1590
     31 F         144.5440  139.6328  160.4698 F       1  UNL1       -0.2027
     32 C         144.1287  140.5774  162.8542 C.ar    1  UNL1        0.0538
     33 C         143.4770  140.4652  164.2006 C.ar    1  UNL1        0.1025
     34 N         143.7134  141.5220  165.2386 N.ar    1  UNL1       -0.2103
     35 C         143.2110  142.1198  169.0797 C.3     1  UNL1        0.2542
     36 O         143.2981  142.4666  167.6229 O.3     1  UNL1       -0.4561
@<TRIPOS>BOND
     1    35    36    1
     2    36    24    1
     3    24    25   ar
     4    25    26   ar
     5    26    27   ar
     6    27    28   ar
     7    28    29   ar
     8    29    30   ar
     9    30    31    1
    10    30    32   ar
    11    32    21    1
    12    21    22    1
    13    21    20    1
    14    20     1    1
    15     1     2    1
    16     2     3    1
    17     3     4    1
    18     4     7    1
    19     7     9    1
    20     9    10    1
    21    10    11   ar
    22    11    12   ar
    23    12    13   ar
    24    13    14   ar
    25    14    15   ar
    26    13    16    1
    27    16    17    1
    28    17    18    1
    29    18    19    1
    30     4     5    1
    31     5     6    1
    32    32    33   ar
    33    33    34   ar
    34    34    24   ar
    35    33    27   ar
    36     6     1    1
    37    15    10   ar
    38    19    12    1
    39    22    23    1
    40     7     8    1
@<TRIPOS>MOLECULE
*****
 36 40 0 0 0
SMALL
GASTEIGER

@<TRIPOS>ATOM
      1 N         142.6901  144.2651  163.1905 N.3     1  UNL1       -0.2703
      2 C         141.5303  144.6775  164.0477 C.3     1  UNL1        0.0736
      3 C         140.1296  144.5489  163.5269 C.3     1  UNL1        0.0331
      4 C         139.8886  144.0077  162.1488 C.3     1  UNL1        0.0570
      5 C         141.0484  143.5952  161.2916 C.3     1  UNL1        0.0331
      6 C         142.4492  143.7239  161.8125 C.3     1  UNL1        0.0736
      7 N         138.4878  143.8791  161.6279 N.3     1  UNL1       -0.2934
      8 H         138.3830  144.5755  160.8900 H       1  UNL1        0.1236
      9 C         138.0154  142.5731  161.0611 C.3     1  UNL1        0.1152
     10 C         138.2396  141.3002  161.8222 C.ar    1  UNL1        0.0782
     11 C         137.9644  141.2491  163.2959 C.ar    1  UNL1        0.0562
     12 C         138.1886  139.9761  164.0571 C.ar    1  UNL1        0.1752
     13 C         138.6881  138.7543  163.3446 C.ar    1  UNL1        0.1914
     14 C         138.9633  138.8054  161.8709 C.ar    1  UNL1        0.1384
     15 N         138.7391  140.0783  161.1098 N.ar    1  UNL1       -0.2434
     16 O         138.9123  137.4813  164.1057 O.3     1  UNL1       -0.4668
     17 C         138.6371  137.4302  165.5794 C.3     1  UNL1        0.2527
     18 C         138.1376  138.6521  166.2919 C.3     1  UNL1        0.2526
     19 O         137.9134  139.9250  165.5307 O.3     1  UNL1       -0.4683
     20 C         144.0909  144.3937  163.7114 C.3     1  UNL1        0.1064
     21 C         144.5229  143.5966  164.9065 C.3     1  UNL1        0.1523
     22 O         145.1739  144.2832  166.0704 O.3     1  UNL1       -0.3785
     23 H         145.2392  145.2340  165.8897 H       1  UNL1        0.2108
     24 C         141.3296  141.8486  167.5517 C.ar    1  UNL1        0.2250
     25 C         141.1106  140.3650  167.5828 C.ar    1  UNL1        0.0593
     26 C         141.9560  139.4641  166.7321 C.ar    1  UNL1        0.0254
     27 C         143.0204  140.0468  165.8503 C.ar    1  UNL1        0.0991
     28 N         143.8658  139.1458  164.9997 N.ar    1  UNL1       -0.2400
     29 C         144.9302  139.7285  164.1179 C.ar    1  UNL1        0.1282
     30 C         145.1492  141.2121  164.0868 C.ar    1  UNL1        0.1590
     31 F         146.2136  141.7948  163.2051 F       1  UNL1       -0.2027
     32 C         144.3038  142.1130  164.9375 C.ar    1  UNL1        0.0538
     33 C         143.2394  141.5303  165.8193 C.ar    1  UNL1        0.1025
     34 N         142.3940  142.4312  166.6700 N.ar    1  UNL1       -0.2103
     35 C         141.0109  143.2553  169.7126 C.3     1  UNL1        0.2542
     36 O         140.4842  142.7495  168.4024 O.3     1  UNL1       -0.4561
@<TRIPOS>BOND
     1    35    36    1
     2    36    24    1
     3    24    25   ar
     4    25    26   ar
     5    26    27   ar
     6    27    28   ar
     7    28    29   ar
     8    29    30   ar
     9    30    31    1
    10    30    32   ar
    11    32    21    1
    12    21    22    1
    13    21    20    1
    14    20     1    1
    15     1     2    1
    16     2     3    1
    17     3     4    1
    18     4     7    1
    19     7     9    1
    20     9    10    1
    21    10    11   ar
    22    11    12   ar
    23    12    13   ar
    24    13    14   ar
    25    14    15   ar
    26    13    16    1
    27    16    17    1
    28    17    18    1
    29    18    19    1
    30     4     5    1
    31     5     6    1
    32    32    33   ar
    33    33    34   ar
    34    34    24   ar
    35    33    27   ar
    36     6     1    1
    37    15    10   ar
    38    19    12    1
    39    22    23    1
    40     7     8    1
@<TRIPOS>MOLECULE
*****
 36 40 0 0 0
SMALL
GASTEIGER

@<TRIPOS>ATOM
      1 N         139.2347  143.5726  162.1135 N.3     1  UNL1       -0.2703
      2 C         140.2725  143.6451  161.0329 C.3     1  UNL1        0.0736
      3 C         141.6121  144.2563  161.3193 C.3     1  UNL1        0.0331
      4 C         141.9139  144.7949  162.6864 C.3     1  UNL1        0.0570
      5 C         140.8761  144.7223  163.7670 C.3     1  UNL1        0.0331
      6 C         139.5365  144.1112  163.4805 C.3     1  UNL1        0.0736
      7 N         143.2535  145.4060  162.9729 N.3     1  UNL1       -0.2934
      8 H         143.0880  146.3880  163.1934 H       1  UNL1        0.1236
      9 C         144.1101  144.8534  164.0733 C.3     1  UNL1        0.1152
     10 C         144.1881  143.3713  164.2907 C.ar    1  UNL1        0.0782
     11 C         143.4453  142.7405  165.4310 C.ar    1  UNL1        0.0562
     12 C         143.5234  141.2583  165.6484 C.ar    1  UNL1        0.1752
     13 C         144.3441  140.4071  164.7255 C.ar    1  UNL1        0.1914
     14 C         145.0869  141.0380  163.5852 C.ar    1  UNL1        0.1384
     15 N         145.0089  142.5201  163.3678 N.ar    1  UNL1       -0.2434
     16 O         144.4222  138.9249  164.9429 O.3     1  UNL1       -0.4668
     17 C         143.6794  138.2941  166.0832 C.3     1  UNL1        0.2527
     18 C         142.8586  139.1453  167.0061 C.3     1  UNL1        0.2526
     19 O         142.7806  140.6274  166.7887 O.3     1  UNL1       -0.4683
     20 C         137.8952  142.9615  161.8271 C.3     1  UNL1        0.1064
     21 C         137.5910  141.5686  162.2934 C.3     1  UNL1        0.1523
     22 O         136.4125  141.3174  163.1867 O.3     1  UNL1       -0.3785
     23 H         135.9577  142.1553  163.3654 H       1  UNL1        0.2108
     24 C         139.1316  138.6487  165.3513 C.ar    1  UNL1        0.2250
     25 C         140.0060  137.5071  164.9244 C.ar    1  UNL1        0.0593
     26 C         140.3668  137.3389  163.4782 C.ar    1  UNL1        0.0254
     27 C         139.8533  138.3122  162.4589 C.ar    1  UNL1        0.0991
     28 N         140.2142  138.1439  161.0127 N.ar    1  UNL1       -0.2400
     29 C         139.7007  139.1172  159.9934 C.ar    1  UNL1        0.1282
     30 C         138.8263  140.2588  160.4203 C.ar    1  UNL1        0.1590
     31 F         138.3128  141.2321  159.4010 F       1  UNL1       -0.2027
     32 C         138.4654  140.4271  161.8665 C.ar    1  UNL1        0.0538
     33 C         138.9790  139.4537  162.8858 C.ar    1  UNL1        0.1025
     34 N         138.6181  139.6220  164.3320 N.ar    1  UNL1       -0.2103
     35 C         139.3481  139.9540  167.5871 C.3     1  UNL1        0.2542
     36 O         138.7707  138.8169  166.7975 O.3     1  UNL1       -0.4561
@<TRIPOS>BOND
     1    35    36    1
     2    36    24    1
     3    24    25   ar
     4    25    26   ar
     5    26    27   ar
     6    27    28   ar
     7    28    29   ar
     8    29    30   ar
     9    30    31    1
    10    30    32   ar
    11    32    21    1
    12    21    22    1
    13    21    20    1
    14    20     1    1
    15     1     2    1
    16     2     3    1
    17     3     4    1
    18     4     7    1
    19     7     9    1
    20     9    10    1
    21    10    11   ar
    22    11    12   ar
    23    12    13   ar
    24    13    14   ar
    25    14    15   ar
    26    13    16    1
    27    16    17    1
    28    17    18    1
    29    18    19    1
    30     4     5    1
    31     5     6    1
    32    32    33   ar
    33    33    34   ar
    34    34    24   ar
    35    33    27   ar
    36     6     1    1
    37    15    10   ar
    38    19    12    1
    39    22    23    1
    40     7     8    1
@<TRIPOS>MOLECULE
*****
 36 40 0 0 0
SMALL
GASTEIGER

@<TRIPOS>ATOM
      1 N         140.8048  144.7453  163.0587 N.3     1  UNL1       -0.2703
      2 C         140.9711  144.2017  161.6706 C.3     1  UNL1        0.0736
      3 C         142.3241  143.7638  161.1937 C.3     1  UNL1        0.0331
      4 C         143.5110  143.8694  162.1050 C.3     1  UNL1        0.0570
      5 C         143.3447  144.4131  163.4931 C.3     1  UNL1        0.0331
      6 C         141.9916  144.8510  163.9699 C.3     1  UNL1        0.0736
      7 N         144.8640  143.4315  161.6281 N.3     1  UNL1       -0.2934
      8 H         145.5456  143.8172  162.2815 H       1  UNL1        0.1236
      9 C         145.1743  141.9703  161.4911 C.3     1  UNL1        0.1152
     10 C         144.4801  140.9708  162.3681 C.ar    1  UNL1        0.0782
     11 C         143.3046  140.2011  161.8431 C.ar    1  UNL1        0.0562
     12 C         142.6104  139.2015  162.7202 C.ar    1  UNL1        0.1752
     13 C         143.0918  138.9718  164.1221 C.ar    1  UNL1        0.1914
     14 C         144.2674  139.7415  164.6471 C.ar    1  UNL1        0.1384
     15 N         144.9615  140.7410  163.7701 N.ar    1  UNL1       -0.2434
     16 O         142.3977  137.9722  164.9992 O.3     1  UNL1       -0.4668
     17 C         141.2221  137.2024  164.4742 C.3     1  UNL1        0.2527
     18 C         140.7407  137.4322  163.0722 C.3     1  UNL1        0.2526
     19 O         141.4349  138.4317  162.1952 O.3     1  UNL1       -0.4683
     20 C         139.4518  145.1833  163.5356 C.3     1  UNL1        0.1064
     21 C         138.7823  144.4555  164.6636 C.3     1  UNL1        0.1523
     22 O         138.2142  145.2242  165.8197 O.3     1  UNL1       -0.3785
     23 H         138.3630  146.1727  165.6817 H       1  UNL1        0.2108
     24 C         140.7397  142.0069  167.8921 C.ar    1  UNL1        0.2250
     25 C         140.6384  140.5107  167.8640 C.ar    1  UNL1        0.0593
     26 C         139.8847  139.8305  166.7598 C.ar    1  UNL1        0.0254
     27 C         139.2322  140.6467  165.6836 C.ar    1  UNL1        0.0991
     28 N         138.4785  139.9666  164.5794 N.ar    1  UNL1       -0.2400
     29 C         137.8261  140.7828  163.5032 C.ar    1  UNL1        0.1282
     30 C         137.9273  142.2791  163.5313 C.ar    1  UNL1        0.1590
     31 F         137.2749  143.0953  162.4552 F       1  UNL1       -0.2027
     32 C         138.6810  142.9593  164.6355 C.ar    1  UNL1        0.0538
     33 C         139.3335  142.1430  165.7117 C.ar    1  UNL1        0.1025
     34 N         140.0872  142.8231  166.8159 N.ar    1  UNL1       -0.2103
     35 C         140.7966  143.6789  169.8798 C.3     1  UNL1        0.2542
     36 O         141.4934  142.6870  168.9963 O.3     1  UNL1       -0.4561
@<TRIPOS>BOND
     1    35    36    1
     2    36    24    1
     3    24    25   ar
     4    25    26   ar
     5    26    27   ar
     6    27    28   ar
     7    28    29   ar
     8    29    30   ar
     9    30    31    1
    10    30    32   ar
    11    32    21    1
    12    21    22    1
    13    21    20    1
    14    20     1    1
    15     1     2    1
    16     2     3    1
    17     3     4    1
    18     4     7    1
    19     7     9    1
    20     9    10    1
    21    10    11   ar
    22    11    12   ar
    23    12    13   ar
    24    13    14   ar
    25    14    15   ar
    26    13    16    1
    27    16    17    1
    28    17    18    1
    29    18    19    1
    30     4     5    1
    31     5     6    1
    32    32    33   ar
    33    33    34   ar
    34    34    24   ar
    35    33    27   ar
    36     6     1    1
    37    15    10   ar
    38    19    12    1
    39    22    23    1
    40     7     8    1
@<TRIPOS>MOLECULE
*****
 36 40 0 0 0
SMALL
GASTEIGER

@<TRIPOS>ATOM
      1 N         142.0191  145.0080  162.8990 N.3     1  UNL1       -0.2703
      2 C         142.7983  144.7579  164.1561 C.3     1  UNL1        0.0736
      3 C         143.9494  143.7962  164.1462 C.3     1  UNL1        0.0331
      4 C         144.3213  143.0846  162.8792 C.3     1  UNL1        0.0570
      5 C         143.5421  143.3347  161.6221 C.3     1  UNL1        0.0331
      6 C         142.3909  144.2964  161.6320 C.3     1  UNL1        0.0736
      7 N         145.4724  142.1229  162.8692 N.3     1  UNL1       -0.2934
      8 H         146.2448  142.5833  163.3506 H       1  UNL1        0.1236
      9 C         145.3216  140.7662  163.4911 C.3     1  UNL1        0.1152
     10 C         144.1199  139.9259  163.1756 C.ar    1  UNL1        0.0782
     11 C         142.8544  140.1019  163.9614 C.ar    1  UNL1        0.0562
     12 C         141.6526  139.2615  163.6459 C.ar    1  UNL1        0.1752
     13 C         141.7164  138.2451  162.5446 C.ar    1  UNL1        0.1914
     14 C         142.9819  138.0691  161.7588 C.ar    1  UNL1        0.1384
     15 N         144.1836  138.9094  162.0743 N.ar    1  UNL1       -0.2434
     16 O         140.5146  137.4047  162.2290 O.3     1  UNL1       -0.4668
     17 C         139.2490  137.5808  163.0148 C.3     1  UNL1        0.2527
     18 C         139.1853  138.5972  164.1161 C.3     1  UNL1        0.2526
     19 O         140.3871  139.4376  164.4316 O.3     1  UNL1       -0.4683
     20 C         140.8680  145.9697  162.9090 C.3     1  UNL1        0.1064
     21 C         139.5577  145.5776  162.2928 C.3     1  UNL1        0.1523
     22 O         138.9155  146.4649  161.2681 O.3     1  UNL1       -0.3785
     23 H         139.4734  147.2445  161.1202 H       1  UNL1        0.2108
     24 C         138.9300  142.3024  159.2714 C.ar    1  UNL1        0.2250
     25 C         138.2621  141.0230  159.6800 C.ar    1  UNL1        0.0593
     26 C         137.8034  140.8353  161.0958 C.ar    1  UNL1        0.0254
     27 C         138.0126  141.9270  162.1029 C.ar    1  UNL1        0.0991
     28 N         137.5539  141.7393  163.5186 N.ar    1  UNL1       -0.2400
     29 C         137.7631  142.8310  164.5258 C.ar    1  UNL1        0.1282
     30 C         138.4311  144.1105  164.1172 C.ar    1  UNL1        0.1590
     31 F         138.6403  145.2022  165.1243 F       1  UNL1       -0.2027
     32 C         138.8898  144.2982  162.7014 C.ar    1  UNL1        0.0538
     33 C         138.6805  143.2064  161.6943 C.ar    1  UNL1        0.1025
     34 N         139.1392  143.3941  160.2785 N.ar    1  UNL1       -0.2103
     35 C         140.7843  142.9632  157.5759 C.3     1  UNL1        0.2542
     36 O         139.3887  142.4901  157.8556 O.3     1  UNL1       -0.4561
@<TRIPOS>BOND
     1    35    36    1
     2    36    24    1
     3    24    25   ar
     4    25    26   ar
     5    26    27   ar
     6    27    28   ar
     7    28    29   ar
     8    29    30   ar
     9    30    31    1
    10    30    32   ar
    11    32    21    1
    12    21    22    1
    13    21    20    1
    14    20     1    1
    15     1     2    1
    16     2     3    1
    17     3     4    1
    18     4     7    1
    19     7     9    1
    20     9    10    1
    21    10    11   ar
    22    11    12   ar
    23    12    13   ar
    24    13    14   ar
    25    14    15   ar
    26    13    16    1
    27    16    17    1
    28    17    18    1
    29    18    19    1
    30     4     5    1
    31     5     6    1
    32    32    33   ar
    33    33    34   ar
    34    34    24   ar
    35    33    27   ar
    36     6     1    1
    37    15    10   ar
    38    19    12    1
    39    22    23    1
    40     7     8    1
