@<TRIPOS>MOLECULE
*****
 39 41 0 0 0
SMALL
GASTEIGER

@<TRIPOS>ATOM
      1 C         138.5363  139.9529  162.9484 C.3     1  UNL1        0.1194
      2 C         138.9092  138.6248  162.3594 C.3     1  UNL1        0.0802
      3 N         139.1265  137.4415  163.2552 N.3     1  UNL1       -0.2965
      4 C         138.9709  137.5863  164.7400 C.3     1  UNL1        0.0802
      5 C         138.5980  138.9144  165.3290 C.3     1  UNL1        0.1200
      6 C         138.3806  140.0977  164.4332 C.3     1  UNL1        0.1303
      7 O         138.0077  141.4259  165.0223 O.3     1  UNL1       -0.3834
      8 H         140.0794  137.1175  163.0892 H       1  UNL1        0.1233
      9 H         137.9490  141.3466  165.9873 H       1  UNL1        0.2104
     10 N         139.2678  141.4057  160.9225 N.am    1  UNL1       -0.3034
     11 C         138.3189  141.1362  162.0525 C.2     1  UNL1        0.2258
     12 O         137.1528  142.0501  162.2867 O.2     1  UNL1       -0.2750
     13 H         140.0332  140.8060  160.7688 H       1  UNL1        0.1495
     14 C         139.0505  142.5891  160.0267 C.3     1  UNL1        0.1011
     15 C         139.6317  143.9228  160.3917 C.3     1  UNL1        0.1615
     16 O         139.0560  144.7041  161.5355 O.3     1  UNL1       -0.3520
     17 C         138.8637  144.7479  164.1260 C.3     1  UNL1        0.0346
     18 C         139.7029  144.6417  162.8873 C.3     1  UNL1        0.1423
     19 C         138.2519  142.4386  158.7658 C.3     1  UNL1        0.0221
     20 C         138.9332  142.0429  157.4894 C.3     1  UNL1        0.0017
     21 C         139.6066  143.0836  156.6448 C.3     1  UNL1        0.0001
     22 C         138.9411  140.6064  157.0575 C.3     1  UNL1        0.0001
     23 C         138.4423  139.0592  166.8139 C.2     1  UNL1        0.2336
     24 O         137.3393  138.3344  167.5267 O.2     1  UNL1       -0.2744
     25 N         139.3897  139.9289  167.5860 N.am    1  UNL1       -0.2454
     26 C         140.4928  140.6537  166.8732 C.ar    1  UNL1        0.1404
     27 C         141.7120  139.9059  166.4213 C.ar    1  UNL1        0.0712
     28 C         142.8150  140.6306  165.7085 C.ar    1  UNL1        0.1390
     29 C         142.6987  142.1032  165.4476 C.ar    1  UNL1        0.0307
     30 C         141.4795  142.8510  165.8995 C.ar    1  UNL1        0.0990
     31 N         140.3765  142.1262  166.6123 N.ar    1  UNL1       -0.2289
     32 C         143.8018  142.8280  164.7348 C.3     1  UNL1        0.0269
     33 C         144.7909  143.6421  165.5150 C.3     1  UNL1        0.0048
     34 C         143.9156  142.7386  163.2418 C.3     1  UNL1        0.0048
     35 O         144.0343  139.8828  165.2566 O.3     1  UNL1       -0.4716
     36 C         144.0110  139.1213  163.9645 C.3     1  UNL1        0.2525
     37 C         139.2341  140.0738  169.0709 C.3     1  UNL1        0.0813
     38 C         139.8447  140.1754  170.4372 C.3     1  UNL1        0.0219
     39 C         138.3541  140.2231  170.2763 C.3     1  UNL1        0.0219
@<TRIPOS>BOND
     1    17    18    1
     2    18    16    1
     3    16    15    1
     4    14    15    1
     5    14    19    1
     6    19    20    1
     7    20    21    1
     8    20    22    1
     9    14    10    1
    10    10    11   am
    11    11    12    2
    12     1    11    1
    13     1     2    1
    14     2     3    1
    15     3     4    1
    16     4     5    1
    17     5    23    1
    18    23    24    2
    19    23    25   am
    20    25    26    1
    21    26    27   ar
    22    27    28   ar
    23    28    35    1
    24    35    36    1
    25    28    29   ar
    26    29    32    1
    27    32    33    1
    28    32    34    1
    29    29    30   ar
    30    30    31   ar
    31    25    37    1
    32    37    38    1
    33    38    39    1
    34     5     6    1
    35     6     7    1
    36     6     1    1
    37    31    26   ar
    38    39    37    1
    39    10    13    1
    40     3     8    1
    41     7     9    1
@<TRIPOS>MOLECULE
*****
 39 41 0 0 0
SMALL
GASTEIGER

@<TRIPOS>ATOM
      1 C         142.2882  138.8681  162.6484 C.3     1  UNL1        0.1194
      2 C         143.5638  139.2646  161.9660 C.3     1  UNL1        0.0802
      3 N         144.8073  139.4915  162.7736 N.3     1  UNL1       -0.2965
      4 C         144.7752  139.3219  164.2636 C.3     1  UNL1        0.0802
      5 C         143.4996  138.9255  164.9460 C.3     1  UNL1        0.1200
      6 C         142.2561  138.6986  164.1384 C.3     1  UNL1        0.1303
      7 O         140.9805  138.3022  164.8208 O.3     1  UNL1       -0.3834
      8 H         145.1050  140.4501  162.5927 H       1  UNL1        0.1233
      9 H         141.1319  138.2369  165.7767 H       1  UNL1        0.2104
     10 N         140.5953  139.6735  160.8496 N.am    1  UNL1       -0.3034
     11 C         141.0447  138.6412  161.8407 C.2     1  UNL1        0.2258
     12 O         140.2506  137.3820  162.0242 O.2     1  UNL1       -0.2750
     13 H         141.1165  140.5000  160.7292 H       1  UNL1        0.1495
     14 C         139.3519  139.4466  160.0420 C.3     1  UNL1        0.1011
     15 C         139.4166  138.6488  158.7735 C.3     1  UNL1        0.1615
     16 O         140.4403  138.9824  157.7291 O.3     1  UNL1       -0.3520
     17 C         142.9664  138.7619  158.2949 C.3     1  UNL1        0.0346
     18 C         141.7237  138.2088  157.6627 C.3     1  UNL1        0.1423
     19 C         138.0436  140.0177  160.5030 C.3     1  UNL1        0.0221
     20 C         137.9929  140.8845  161.7261 C.3     1  UNL1        0.0017
     21 C         137.8942  140.2583  163.0855 C.3     1  UNL1        0.0001
     22 C         138.0410  142.3776  161.5897 C.3     1  UNL1        0.0001
     23 C         143.4674  138.7560  166.4361 C.2     1  UNL1        0.2336
     24 O         144.2055  137.6186  167.0776 O.2     1  UNL1       -0.2744
     25 N         142.6972  139.7238  167.2846 N.am    1  UNL1       -0.2454
     26 C         141.9591  140.8613  166.6430 C.ar    1  UNL1        0.1404
     27 C         142.7210  141.9887  166.0118 C.ar    1  UNL1        0.0712
     28 C         141.9830  143.1261  165.3702 C.ar    1  UNL1        0.1390
     29 C         140.4831  143.1360  165.3599 C.ar    1  UNL1        0.0307
     30 C         139.7212  142.0086  165.9911 C.ar    1  UNL1        0.0990
     31 N         140.4592  140.8712  166.6326 N.ar    1  UNL1       -0.2289
     32 C         139.7450  144.2734  164.7183 C.3     1  UNL1        0.0269
     33 C         140.1083  144.7163  163.3320 C.3     1  UNL1        0.0048
     34 C         138.6436  144.9679  165.4630 C.3     1  UNL1        0.0048
     35 O         142.7449  144.2535  164.7390 O.3     1  UNL1       -0.4716
     36 C         143.7789  143.9659  163.6911 C.3     1  UNL1        0.2525
     37 C         142.6650  139.5543  168.7746 C.3     1  UNL1        0.0813
     38 C         142.6912  140.1507  170.1507 C.3     1  UNL1        0.0219
     39 C         142.5831  138.6645  169.9793 C.3     1  UNL1        0.0219
@<TRIPOS>BOND
     1    17    18    1
     2    18    16    1
     3    16    15    1
     4    14    15    1
     5    14    19    1
     6    19    20    1
     7    20    21    1
     8    20    22    1
     9    14    10    1
    10    10    11   am
    11    11    12    2
    12     1    11    1
    13     1     2    1
    14     2     3    1
    15     3     4    1
    16     4     5    1
    17     5    23    1
    18    23    24    2
    19    23    25   am
    20    25    26    1
    21    26    27   ar
    22    27    28   ar
    23    28    35    1
    24    35    36    1
    25    28    29   ar
    26    29    32    1
    27    32    33    1
    28    32    34    1
    29    29    30   ar
    30    30    31   ar
    31    25    37    1
    32    37    38    1
    33    38    39    1
    34     5     6    1
    35     6     7    1
    36     6     1    1
    37    31    26   ar
    38    39    37    1
    39    10    13    1
    40     3     8    1
    41     7     9    1
@<TRIPOS>MOLECULE
*****
 39 41 0 0 0
SMALL
GASTEIGER

@<TRIPOS>ATOM
      1 C         142.3510  138.7223  162.6974 C.3     1  UNL1        0.1194
      2 C         143.6156  139.1602  162.0201 C.3     1  UNL1        0.0802
      3 N         144.8417  139.4485  162.8348 N.3     1  UNL1       -0.2965
      4 C         144.8030  139.2988  164.3268 C.3     1  UNL1        0.0802
      5 C         143.5383  138.8609  165.0041 C.3     1  UNL1        0.1200
      6 C         142.3123  138.5727  164.1894 C.3     1  UNL1        0.1303
      7 O         141.0476  138.1347  164.8668 O.3     1  UNL1       -0.3834
      8 H         145.1023  140.4157  162.6425 H       1  UNL1        0.1233
      9 H         141.1929  138.0892  165.8247 H       1  UNL1        0.2104
     10 N         140.7220  139.3659  160.7785 N.am    1  UNL1       -0.3034
     11 C         141.1249  138.4340  161.8827 C.2     1  UNL1        0.2258
     12 O         140.3018  137.2139  162.1722 O.2     1  UNL1       -0.2750
     13 H         141.2622  140.1667  160.5885 H       1  UNL1        0.1495
     14 C         139.4959  139.0776  159.9638 C.3     1  UNL1        0.1011
     15 C         138.1496  139.5252  160.4506 C.3     1  UNL1        0.1615
     16 O         137.7092  139.1962  161.8462 O.3     1  UNL1       -0.3520
     17 C         137.2712  141.4556  163.0517 C.3     1  UNL1        0.0346
     18 C         138.0008  140.1476  162.9686 C.3     1  UNL1        0.1423
     19 C         139.6163  138.3416  158.6623 C.3     1  UNL1        0.0221
     20 C         139.7928  139.1045  157.3829 C.3     1  UNL1        0.0017
     21 C         139.9487  140.5960  157.4144 C.3     1  UNL1        0.0001
     22 C         139.8133  138.3758  156.0719 C.3     1  UNL1        0.0001
     23 C         143.4996  138.7113  166.4962 C.2     1  UNL1        0.2336
     24 O         144.2783  137.6148  167.1604 O.2     1  UNL1       -0.2744
     25 N         142.6822  139.6582  167.3239 N.am    1  UNL1       -0.2454
     26 C         141.9035  140.7548  166.6596 C.ar    1  UNL1        0.1404
     27 C         142.6226  141.9177  166.0427 C.ar    1  UNL1        0.0712
     28 C         141.8440  143.0142  165.3785 C.ar    1  UNL1        0.1390
     29 C         140.3462  142.9478  165.3310 C.ar    1  UNL1        0.0307
     30 C         139.6271  141.7849  165.9479 C.ar    1  UNL1        0.0990
     31 N         140.4058  140.6884  166.6122 N.ar    1  UNL1       -0.2289
     32 C         139.5675  144.0444  164.6667 C.3     1  UNL1        0.0269
     33 C         138.7040  144.9549  165.4884 C.3     1  UNL1        0.0048
     34 C         139.6524  144.2303  163.1807 C.3     1  UNL1        0.0048
     35 O         142.5631  144.1771  164.7616 O.3     1  UNL1       -0.4716
     36 C         143.3542  143.9869  163.5015 C.3     1  UNL1        0.2525
     37 C         142.6435  139.5086  168.8159 C.3     1  UNL1        0.0813
     38 C         142.6264  140.1251  170.1832 C.3     1  UNL1        0.0219
     39 C         142.5935  138.6331  170.0328 C.3     1  UNL1        0.0219
@<TRIPOS>BOND
     1    17    18    1
     2    18    16    1
     3    16    15    1
     4    14    15    1
     5    14    19    1
     6    19    20    1
     7    20    21    1
     8    20    22    1
     9    14    10    1
    10    10    11   am
    11    11    12    2
    12     1    11    1
    13     1     2    1
    14     2     3    1
    15     3     4    1
    16     4     5    1
    17     5    23    1
    18    23    24    2
    19    23    25   am
    20    25    26    1
    21    26    27   ar
    22    27    28   ar
    23    28    35    1
    24    35    36    1
    25    28    29   ar
    26    29    32    1
    27    32    33    1
    28    32    34    1
    29    29    30   ar
    30    30    31   ar
    31    25    37    1
    32    37    38    1
    33    38    39    1
    34     5     6    1
    35     6     7    1
    36     6     1    1
    37    31    26   ar
    38    39    37    1
    39    10    13    1
    40     3     8    1
    41     7     9    1
@<TRIPOS>MOLECULE
*****
 39 41 0 0 0
SMALL
GASTEIGER

@<TRIPOS>ATOM
      1 C         138.6457  139.9313  162.9081 C.3     1  UNL1        0.1194
      2 C         139.0763  138.6141  162.3342 C.3     1  UNL1        0.0802
      3 N         139.3225  137.4452  163.2414 N.3     1  UNL1       -0.2965
      4 C         139.1381  137.5936  164.7226 C.3     1  UNL1        0.0802
      5 C         138.7075  138.9108  165.2965 C.3     1  UNL1        0.1200
      6 C         138.4613  140.0797  164.3893 C.3     1  UNL1        0.1303
      7 O         138.0306  141.3969  164.9633 O.3     1  UNL1       -0.3834
      8 H         140.2891  137.1555  163.0926 H       1  UNL1        0.1233
      9 H         137.9595  141.3216  165.9278 H       1  UNL1        0.2104
     10 N         139.4884  141.5854  161.0904 N.am    1  UNL1       -0.3034
     11 C         138.3995  141.1002  162.0009 C.2     1  UNL1        0.2258
     12 O         137.0645  141.7840  162.0041 O.2     1  UNL1       -0.2750
     13 H         140.3646  141.1366  161.0883 H       1  UNL1        0.1495
     14 C         139.2422  142.7542  160.1832 C.3     1  UNL1        0.1011
     15 C         138.4756  142.5654  158.9078 C.3     1  UNL1        0.1615
     16 O         137.9878  141.2006  158.5210 O.3     1  UNL1       -0.3520
     17 C         137.9756  140.5830  155.9975 C.3     1  UNL1        0.0346
     18 C         137.2412  141.0078  157.2345 C.3     1  UNL1        0.1423
     19 C         139.7626  144.1121  160.5514 C.3     1  UNL1        0.0221
     20 C         139.8474  144.5172  161.9931 C.3     1  UNL1        0.0017
     21 C         141.1866  144.6894  162.6463 C.3     1  UNL1        0.0001
     22 C         138.5928  144.7500  162.7817 C.3     1  UNL1        0.0001
     23 C         138.5230  139.0591  166.7778 C.2     1  UNL1        0.2336
     24 O         137.4078  138.3342  167.4710 O.2     1  UNL1       -0.2744
     25 N         139.4538  139.9325  167.5657 N.am    1  UNL1       -0.2454
     26 C         140.5691  140.6575  166.8724 C.ar    1  UNL1        0.1404
     27 C         141.7941  139.9090  166.4376 C.ar    1  UNL1        0.0712
     28 C         142.9094  140.6340  165.7443 C.ar    1  UNL1        0.1390
     29 C         142.7995  142.1074  165.4857 C.ar    1  UNL1        0.0307
     30 C         141.5744  142.8559  165.9204 C.ar    1  UNL1        0.0990
     31 N         140.4592  142.1310  166.6138 N.ar    1  UNL1       -0.2289
     32 C         143.9148  142.8324  164.7924 C.3     1  UNL1        0.0269
     33 C         144.8245  143.7327  165.5745 C.3     1  UNL1        0.0048
     34 C         144.1202  142.6570  163.3169 C.3     1  UNL1        0.0048
     35 O         144.1344  139.8855  165.3096 O.3     1  UNL1       -0.4716
     36 C         144.1220  139.1065  164.0278 C.3     1  UNL1        0.2525
     37 C         139.2694  140.0809  169.0469 C.3     1  UNL1        0.0813
     38 C         139.8532  140.1834  170.4248 C.3     1  UNL1        0.0219
     39 C         138.3663  140.2355  170.2345 C.3     1  UNL1        0.0219
@<TRIPOS>BOND
     1    17    18    1
     2    18    16    1
     3    16    15    1
     4    14    15    1
     5    14    19    1
     6    19    20    1
     7    20    21    1
     8    20    22    1
     9    14    10    1
    10    10    11   am
    11    11    12    2
    12     1    11    1
    13     1     2    1
    14     2     3    1
    15     3     4    1
    16     4     5    1
    17     5    23    1
    18    23    24    2
    19    23    25   am
    20    25    26    1
    21    26    27   ar
    22    27    28   ar
    23    28    35    1
    24    35    36    1
    25    28    29   ar
    26    29    32    1
    27    32    33    1
    28    32    34    1
    29    29    30   ar
    30    30    31   ar
    31    25    37    1
    32    37    38    1
    33    38    39    1
    34     5     6    1
    35     6     7    1
    36     6     1    1
    37    31    26   ar
    38    39    37    1
    39    10    13    1
    40     3     8    1
    41     7     9    1
@<TRIPOS>MOLECULE
*****
 39 41 0 0 0
SMALL
GASTEIGER

@<TRIPOS>ATOM
      1 C         138.8639  139.3665  162.6900 C.3     1  UNL1        0.1194
      2 C         139.7287  138.2013  162.3102 C.3     1  UNL1        0.0802
      3 N         140.2725  137.2930  163.3730 N.3     1  UNL1       -0.2965
      4 C         139.9515  137.5500  164.8155 C.3     1  UNL1        0.0802
      5 C         139.0867  138.7152  165.1953 C.3     1  UNL1        0.1200
      6 C         138.5429  139.6235  164.1326 C.3     1  UNL1        0.1303
      7 O         137.6780  140.7888  164.5124 O.3     1  UNL1       -0.3834
      8 H         141.2887  137.3166  163.2887 H       1  UNL1        0.1233
      9 H         137.5701  140.8107  165.4761 H       1  UNL1        0.2104
     10 N         139.0263  140.3943  160.3094 N.am    1  UNL1       -0.3034
     11 C         138.3201  140.2748  161.6273 C.2     1  UNL1        0.2258
     12 O         137.0700  141.0635  161.8825 O.2     1  UNL1       -0.2750
     13 H         139.8468  139.8766  160.1419 H       1  UNL1        0.1495
     14 C         138.4825  141.3025  159.2467 C.3     1  UNL1        0.1011
     15 C         138.9025  142.7418  159.2033 C.3     1  UNL1        0.1615
     16 O         139.0673  143.5138  160.4788 O.3     1  UNL1       -0.3520
     17 C         141.4689  144.2370  161.1565 C.3     1  UNL1        0.0346
     18 C         140.1242  144.5731  160.5831 C.3     1  UNL1        0.1423
     19 C         137.5186  140.7714  158.2274 C.3     1  UNL1        0.0221
     20 C         137.7012  141.1061  156.7767 C.3     1  UNL1        0.0017
     21 C         138.7140  140.3628  155.9572 C.3     1  UNL1        0.0001
     22 C         136.8708  142.1842  156.1455 C.3     1  UNL1        0.0001
     23 C         138.7657  138.9723  166.6378 C.2     1  UNL1        0.2336
     24 O         137.6429  138.2302  167.3001 O.2     1  UNL1       -0.2744
     25 N         139.5675  139.9714  167.4181 N.am    1  UNL1       -0.2454
     26 C         140.6903  140.7135  166.7558 C.ar    1  UNL1        0.1404
     27 C         140.4273  142.0297  166.0861 C.ar    1  UNL1        0.0712
     28 C         141.5500  142.7718  165.4238 C.ar    1  UNL1        0.1390
     29 C         142.9358  142.1978  165.4312 C.ar    1  UNL1        0.0307
     30 C         143.1988  140.8816  166.1009 C.ar    1  UNL1        0.0990
     31 N         142.0760  140.1395  166.7632 N.ar    1  UNL1       -0.2289
     32 C         144.0586  142.9399  164.7689 C.3     1  UNL1        0.0269
     33 C         144.8246  143.9788  165.5329 C.3     1  UNL1        0.0048
     34 C         144.4154  142.6430  163.3425 C.3     1  UNL1        0.0048
     35 O         141.2870  144.0880  164.7540 O.3     1  UNL1       -0.4716
     36 C         139.8772  144.5610  164.5574 C.3     1  UNL1        0.2525
     37 C         139.2465  140.2285  168.8606 C.3     1  UNL1        0.0813
     38 C         139.6294  140.7952  170.1956 C.3     1  UNL1        0.0219
     39 C         138.3077  140.1070  170.0241 C.3     1  UNL1        0.0219
@<TRIPOS>BOND
     1    17    18    1
     2    18    16    1
     3    16    15    1
     4    14    15    1
     5    14    19    1
     6    19    20    1
     7    20    21    1
     8    20    22    1
     9    14    10    1
    10    10    11   am
    11    11    12    2
    12     1    11    1
    13     1     2    1
    14     2     3    1
    15     3     4    1
    16     4     5    1
    17     5    23    1
    18    23    24    2
    19    23    25   am
    20    25    26    1
    21    26    27   ar
    22    27    28   ar
    23    28    35    1
    24    35    36    1
    25    28    29   ar
    26    29    32    1
    27    32    33    1
    28    32    34    1
    29    29    30   ar
    30    30    31   ar
    31    25    37    1
    32    37    38    1
    33    38    39    1
    34     5     6    1
    35     6     7    1
    36     6     1    1
    37    31    26   ar
    38    39    37    1
    39    10    13    1
    40     3     8    1
    41     7     9    1
@<TRIPOS>MOLECULE
*****
 39 41 0 0 0
SMALL
GASTEIGER

@<TRIPOS>ATOM
      1 C         143.1536  139.3056  162.5963 C.3     1  UNL1        0.1194
      2 C         142.2917  138.1701  162.1299 C.3     1  UNL1        0.0802
      3 N         141.6807  137.2327  163.1289 N.3     1  UNL1       -0.2965
      4 C         141.9315  137.4310  164.5944 C.3     1  UNL1        0.0802
      5 C         142.7934  138.5666  165.0609 C.3     1  UNL1        0.1200
      6 C         143.4044  139.5039  164.0618 C.3     1  UNL1        0.1303
      7 O         144.2663  140.6395  164.5283 O.3     1  UNL1       -0.3834
      8 H         142.0141  136.2971  162.8971 H       1  UNL1        0.1233
      9 H         144.3253  140.6241  165.4964 H       1  UNL1        0.2104
     10 N         143.0656  140.5141  160.2981 N.am    1  UNL1       -0.3034
     11 C         143.7646  140.2429  161.5973 C.2     1  UNL1        0.2258
     12 O         145.0746  140.9091  161.8973 O.2     1  UNL1       -0.2750
     13 H         142.2058  140.0769  160.1011 H       1  UNL1        0.1495
     14 C         143.6766  141.4514  159.2991 C.3     1  UNL1        0.1011
     15 C         144.3578  140.9068  158.0787 C.3     1  UNL1        0.1615
     16 O         144.1645  139.4711  157.6896 O.3     1  UNL1       -0.3520
     17 C         141.9443  138.5774  156.6787 C.3     1  UNL1        0.0346
     18 C         143.3287  139.1243  156.4933 C.3     1  UNL1        0.1423
     19 C         143.6064  142.9334  159.5204 C.3     1  UNL1        0.0221
     20 C         142.4823  143.5195  160.3222 C.3     1  UNL1        0.0017
     21 C         141.1436  143.7445  159.6840 C.3     1  UNL1        0.0001
     22 C         142.6968  143.8806  161.7622 C.3     1  UNL1        0.0001
     23 C         143.0443  138.7649  166.5264 C.2     1  UNL1        0.2336
     24 O         143.9264  137.8082  167.2725 O.2     1  UNL1       -0.2744
     25 N         142.4131  139.9199  167.2458 N.am    1  UNL1       -0.2454
     26 C         141.5310  140.8766  166.4996 C.ar    1  UNL1        0.1404
     27 C         140.1691  140.4423  166.0450 C.ar    1  UNL1        0.0712
     28 C         139.2871  141.3989  165.2988 C.ar    1  UNL1        0.1390
     29 C         139.7668  142.7898  165.0074 C.ar    1  UNL1        0.0307
     30 C         141.1287  143.2242  165.4620 C.ar    1  UNL1        0.0990
     31 N         142.0108  142.2676  166.2081 N.ar    1  UNL1       -0.2289
     32 C         138.8847  143.7465  164.2612 C.3     1  UNL1        0.0269
     33 C         139.0270  143.8948  162.7754 C.3     1  UNL1        0.0048
     34 C         137.8603  144.5549  165.0009 C.3     1  UNL1        0.0048
     35 O         137.9252  140.9645  164.8442 O.3     1  UNL1       -0.4716
     36 C         137.7414  140.3870  163.4721 C.3     1  UNL1        0.2525
     37 C         142.6639  140.1183  168.7113 C.3     1  UNL1        0.0813
     38 C         143.1609  140.9717  169.8403 C.3     1  UNL1        0.0219
     39 C         142.6015  139.6084  170.1206 C.3     1  UNL1        0.0219
@<TRIPOS>BOND
     1    17    18    1
     2    18    16    1
     3    16    15    1
     4    14    15    1
     5    14    19    1
     6    19    20    1
     7    20    21    1
     8    20    22    1
     9    14    10    1
    10    10    11   am
    11    11    12    2
    12     1    11    1
    13     1     2    1
    14     2     3    1
    15     3     4    1
    16     4     5    1
    17     5    23    1
    18    23    24    2
    19    23    25   am
    20    25    26    1
    21    26    27   ar
    22    27    28   ar
    23    28    35    1
    24    35    36    1
    25    28    29   ar
    26    29    32    1
    27    32    33    1
    28    32    34    1
    29    29    30   ar
    30    30    31   ar
    31    25    37    1
    32    37    38    1
    33    38    39    1
    34     5     6    1
    35     6     7    1
    36     6     1    1
    37    31    26   ar
    38    39    37    1
    39    10    13    1
    40     3     8    1
    41     7     9    1
@<TRIPOS>MOLECULE
*****
 39 41 0 0 0
SMALL
GASTEIGER

@<TRIPOS>ATOM
      1 C         138.8157  139.3864  162.6982 C.3     1  UNL1        0.1194
      2 C         139.6545  138.2004  162.3243 C.3     1  UNL1        0.0802
      3 N         140.1734  137.2825  163.3912 N.3     1  UNL1       -0.2965
      4 C         139.8536  137.5506  164.8319 C.3     1  UNL1        0.0802
      5 C         139.0147  138.7366  165.2058 C.3     1  UNL1        0.1200
      6 C         138.4958  139.6545  164.1389 C.3     1  UNL1        0.1303
      7 O         137.6570  140.8405  164.5128 O.3     1  UNL1       -0.3834
      8 H         141.1902  137.2823  163.3104 H       1  UNL1        0.1233
      9 H         137.5462  140.8674  165.4761 H       1  UNL1        0.2104
     10 N         138.9875  140.3750  160.3017 N.am    1  UNL1       -0.3034
     11 C         138.2968  140.3043  161.6313 C.2     1  UNL1        0.2258
     12 O         137.0872  141.1514  161.8940 O.2     1  UNL1       -0.2750
     13 H         139.7814  139.8190  160.1292 H       1  UNL1        0.1495
     14 C         138.4685  141.2929  159.2348 C.3     1  UNL1        0.1011
     15 C         137.6064  140.7510  158.1335 C.3     1  UNL1        0.1615
     16 O         137.1660  141.6485  157.0152 O.3     1  UNL1       -0.3520
     17 C         139.1326  142.5158  155.5557 C.3     1  UNL1        0.0346
     18 C         137.9168  141.6522  155.7166 C.3     1  UNL1        0.1423
     19 C         138.8118  142.7527  159.2694 C.3     1  UNL1        0.0221
     20 C         140.1975  143.1887  159.6434 C.3     1  UNL1        0.0017
     21 C         140.5077  143.5666  161.0615 C.3     1  UNL1        0.0001
     22 C         141.2730  143.2467  158.5993 C.3     1  UNL1        0.0001
     23 C         138.6948  139.0047  166.6466 C.2     1  UNL1        0.2336
     24 O         137.5858  138.2530  167.3210 O.2     1  UNL1       -0.2744
     25 N         139.4840  140.0245  167.4128 N.am    1  UNL1       -0.2454
     26 C         140.5931  140.7762  166.7383 C.ar    1  UNL1        0.1404
     27 C         140.3186  142.1063  166.1014 C.ar    1  UNL1        0.0712
     28 C         141.4276  142.8580  165.4269 C.ar    1  UNL1        0.1390
     29 C         142.8111  142.2796  165.3893 C.ar    1  UNL1        0.0307
     30 C         143.0855  140.9496  166.0262 C.ar    1  UNL1        0.0990
     31 N         141.9765  140.1979  166.7007 N.ar    1  UNL1       -0.2289
     32 C         143.9202  143.0314  164.7147 C.3     1  UNL1        0.0269
     33 C         144.8097  143.9347  165.5163 C.3     1  UNL1        0.0048
     34 C         144.1396  142.8796  163.2386 C.3     1  UNL1        0.0048
     35 O         141.1531  144.1880  164.7900 O.3     1  UNL1       -0.4716
     36 C         139.7397  144.6183  164.5313 C.3     1  UNL1        0.2525
     37 C         139.1641  140.2927  168.8535 C.3     1  UNL1        0.0813
     38 C         139.4134  141.0589  170.1187 C.3     1  UNL1        0.0219
     39 C         138.3607  139.9910  170.0838 C.3     1  UNL1        0.0219
@<TRIPOS>BOND
     1    17    18    1
     2    18    16    1
     3    16    15    1
     4    14    15    1
     5    14    19    1
     6    19    20    1
     7    20    21    1
     8    20    22    1
     9    14    10    1
    10    10    11   am
    11    11    12    2
    12     1    11    1
    13     1     2    1
    14     2     3    1
    15     3     4    1
    16     4     5    1
    17     5    23    1
    18    23    24    2
    19    23    25   am
    20    25    26    1
    21    26    27   ar
    22    27    28   ar
    23    28    35    1
    24    35    36    1
    25    28    29   ar
    26    29    32    1
    27    32    33    1
    28    32    34    1
    29    29    30   ar
    30    30    31   ar
    31    25    37    1
    32    37    38    1
    33    38    39    1
    34     5     6    1
    35     6     7    1
    36     6     1    1
    37    31    26   ar
    38    39    37    1
    39    10    13    1
    40     3     8    1
    41     7     9    1
@<TRIPOS>MOLECULE
*****
 39 41 0 0 0
SMALL
GASTEIGER

@<TRIPOS>ATOM
      1 C         138.5369  141.6847  161.6285 C.3     1  UNL1        0.1194
      2 C         137.5175  140.8669  162.3645 C.3     1  UNL1        0.0802
      3 N         137.2687  139.4424  161.9657 N.3     1  UNL1       -0.2965
      4 C         138.0394  138.8358  160.8308 C.3     1  UNL1        0.0802
      5 C         139.0589  139.6536  160.0948 C.3     1  UNL1        0.1200
      6 C         139.3076  141.0781  160.4936 C.3     1  UNL1        0.1303
      7 O         140.3272  141.8959  159.7575 O.3     1  UNL1       -0.3834
      8 H         136.2809  139.3734  161.7209 H       1  UNL1        0.1233
      9 H         140.7307  141.3572  159.0590 H       1  UNL1        0.2104
     10 N         140.1869  143.6429  162.0677 N.am    1  UNL1       -0.3034
     11 C         138.7857  143.1091  162.0274 C.2     1  UNL1        0.2258
     12 O         137.6333  143.9998  162.3859 O.2     1  UNL1       -0.2750
     13 H         140.9433  143.0583  161.8323 H       1  UNL1        0.1495
     14 C         140.4357  145.0673  162.4665 C.3     1  UNL1        0.1011
     15 C         139.8513  146.1861  161.6562 C.3     1  UNL1        0.1615
     16 O         139.6768  146.0276  160.1748 O.3     1  UNL1       -0.3520
     17 C         140.9125  145.7859  157.9022 C.3     1  UNL1        0.0346
     18 C         140.7744  145.4223  159.3509 C.3     1  UNL1        0.1423
     19 C         141.2690  145.3730  163.6758 C.3     1  UNL1        0.0221
     20 C         142.5148  144.5829  163.9473 C.3     1  UNL1        0.0017
     21 C         143.8434  145.0897  163.4699 C.3     1  UNL1        0.0001
     22 C         142.4320  143.2859  164.6964 C.3     1  UNL1        0.0001
     23 C         139.8296  139.0470  158.9598 C.2     1  UNL1        0.2336
     24 O         139.1864  138.8942  157.6134 O.2     1  UNL1       -0.2744
     25 N         141.2436  138.5933  159.1714 N.am    1  UNL1       -0.2454
     26 C         141.8868  138.7461  160.5179 C.ar    1  UNL1        0.1404
     27 C         142.7692  139.9264  160.7979 C.ar    1  UNL1        0.0712
     28 C         143.4124  140.0793  162.1443 C.ar    1  UNL1        0.1390
     29 C         143.1732  139.0519  163.2107 C.ar    1  UNL1        0.0307
     30 C         142.2909  137.8716  162.9307 C.ar    1  UNL1        0.0990
     31 N         141.6477  137.7187  161.5843 N.ar    1  UNL1       -0.2289
     32 C         143.8164  139.2047  164.5572 C.3     1  UNL1        0.0269
     33 C         145.3102  139.1573  164.6846 C.3     1  UNL1        0.0048
     34 C         142.9658  139.4050  165.7764 C.3     1  UNL1        0.0048
     35 O         144.2947  141.2595  162.4244 O.3     1  UNL1       -0.4716
     36 C         144.7215  142.1597  161.3030 C.3     1  UNL1        0.2525
     37 C         142.0144  137.9867  158.0366 C.3     1  UNL1        0.0813
     38 C         142.8005  138.1450  156.7689 C.3     1  UNL1        0.0219
     39 C         142.5632  136.7778  157.3385 C.3     1  UNL1        0.0219
@<TRIPOS>BOND
     1    17    18    1
     2    18    16    1
     3    16    15    1
     4    14    15    1
     5    14    19    1
     6    19    20    1
     7    20    21    1
     8    20    22    1
     9    14    10    1
    10    10    11   am
    11    11    12    2
    12     1    11    1
    13     1     2    1
    14     2     3    1
    15     3     4    1
    16     4     5    1
    17     5    23    1
    18    23    24    2
    19    23    25   am
    20    25    26    1
    21    26    27   ar
    22    27    28   ar
    23    28    35    1
    24    35    36    1
    25    28    29   ar
    26    29    32    1
    27    32    33    1
    28    32    34    1
    29    29    30   ar
    30    30    31   ar
    31    25    37    1
    32    37    38    1
    33    38    39    1
    34     5     6    1
    35     6     7    1
    36     6     1    1
    37    31    26   ar
    38    39    37    1
    39    10    13    1
    40     3     8    1
    41     7     9    1
@<TRIPOS>MOLECULE
*****
 39 41 0 0 0
SMALL
GASTEIGER

@<TRIPOS>ATOM
      1 C         142.7965  138.9186  162.4160 C.3     1  UNL1        0.1194
      2 C         144.0281  139.5833  161.8762 C.3     1  UNL1        0.0802
      3 N         145.1350  139.9808  162.8071 N.3     1  UNL1       -0.2965
      4 C         145.0104  139.7136  164.2778 C.3     1  UNL1        0.0802
      5 C         143.7789  139.0489  164.8176 C.3     1  UNL1        0.1200
      6 C         142.6719  138.6514  163.8867 C.3     1  UNL1        0.1303
      7 O         141.4403  137.9867  164.4266 O.3     1  UNL1       -0.3834
      8 H         145.2623  140.9872  162.7004 H       1  UNL1        0.1233
      9 H         141.5207  137.8892  165.3883 H       1  UNL1        0.2104
     10 N         141.3901  139.3566  160.2758 N.am    1  UNL1       -0.3034
     11 C         141.6895  138.5211  161.4851 C.2     1  UNL1        0.2258
     12 O         140.8820  137.2880  161.7633 O.2     1  UNL1       -0.2750
     13 H         141.9201  140.1659  160.0932 H       1  UNL1        0.1495
     14 C         140.2832  138.9591  159.3449 C.3     1  UNL1        0.1011
     15 C         140.5497  137.9858  158.2352 C.3     1  UNL1        0.1615
     16 O         139.5000  137.7285  157.1950 O.3     1  UNL1       -0.3520
     17 C         138.5487  139.6935  155.7865 C.3     1  UNL1        0.0346
     18 C         139.4868  138.5317  155.9282 C.3     1  UNL1        0.1423
     19 C         138.9096  139.5349  159.5238 C.3     1  UNL1        0.0221
     20 C         138.3788  139.7940  160.9026 C.3     1  UNL1        0.0017
     21 C         137.6916  138.6968  161.6601 C.3     1  UNL1        0.0001
     22 C         138.5351  141.1503  161.5239 C.3     1  UNL1        0.0001
     23 C         143.6543  138.7817  166.2884 C.2     1  UNL1        0.2336
     24 O         144.3995  137.6372  166.9085 O.2     1  UNL1       -0.2744
     25 N         142.7844  139.6590  167.1390 N.am    1  UNL1       -0.2454
     26 C         142.0391  140.8036  166.5188 C.ar    1  UNL1        0.1404
     27 C         140.5948  140.6442  166.1462 C.ar    1  UNL1        0.0712
     28 C         139.8496  141.7887  165.5260 C.ar    1  UNL1        0.1390
     29 C         140.5485  143.0926  165.2784 C.ar    1  UNL1        0.0307
     30 C         141.9927  143.2520  165.6510 C.ar    1  UNL1        0.0990
     31 N         142.7380  142.1075  166.2712 N.ar    1  UNL1       -0.2289
     32 C         139.8032  144.2372  164.6582 C.3     1  UNL1        0.0269
     33 C         138.7265  144.9383  165.4321 C.3     1  UNL1        0.0048
     34 C         140.1347  144.6805  163.2641 C.3     1  UNL1        0.0048
     35 O         138.4053  141.6293  165.1535 O.3     1  UNL1       -0.4716
     36 C         137.8313  140.2593  164.9450 C.3     1  UNL1        0.2525
     37 C         142.6597  139.3919  168.6097 C.3     1  UNL1        0.0813
     38 C         142.3396  139.8713  169.9945 C.3     1  UNL1        0.0219
     39 C         142.7638  138.4498  169.7722 C.3     1  UNL1        0.0219
@<TRIPOS>BOND
     1    17    18    1
     2    18    16    1
     3    16    15    1
     4    14    15    1
     5    14    19    1
     6    19    20    1
     7    20    21    1
     8    20    22    1
     9    14    10    1
    10    10    11   am
    11    11    12    2
    12     1    11    1
    13     1     2    1
    14     2     3    1
    15     3     4    1
    16     4     5    1
    17     5    23    1
    18    23    24    2
    19    23    25   am
    20    25    26    1
    21    26    27   ar
    22    27    28   ar
    23    28    35    1
    24    35    36    1
    25    28    29   ar
    26    29    32    1
    27    32    33    1
    28    32    34    1
    29    29    30   ar
    30    30    31   ar
    31    25    37    1
    32    37    38    1
    33    38    39    1
    34     5     6    1
    35     6     7    1
    36     6     1    1
    37    31    26   ar
    38    39    37    1
    39    10    13    1
    40     3     8    1
    41     7     9    1
