@<TRIPOS>MOLECULE
*****
 33 37 0 0 0
SMALL
GASTEIGER

@<TRIPOS>ATOM
      1 C         142.2139  142.8585  164.9822 C.ar    1  UNL1        0.0906
      2 C         141.4463  142.5058  166.2217 C.ar    1  UNL1        0.1496
      3 O         140.1038  143.1699  166.1400 O.2     1  UNL1       -0.4534
      4 C         140.0417  143.9329  164.8501 C.ar    1  UNL1        0.1454
      5 C         138.9661  144.7781  164.2347 C.ar    1  UNL1        0.0406
      6 C         139.1948  145.4309  162.9037 C.ar    1  UNL1        0.0395
      7 C         140.4990  145.2384  162.1881 C.ar    1  UNL1        0.1311
      8 O         140.7275  145.8912  160.8571 O.3     1  UNL1       -0.5058
      9 C         141.5745  144.3932  162.8035 C.ar    1  UNL1        0.0308
     10 C         141.3459  143.7405  164.1345 C.ar    1  UNL1        0.0421
     11 H         140.0557  146.4192  160.4726 H       1  UNL1        0.2922
     12 C         141.9353  141.6409  167.3455 C.ar    1  UNL1        0.0349
     13 C         142.3657  142.2652  168.6397 C.ar    1  UNL1        0.0061
     14 C         142.8547  141.4003  169.7635 C.ar    1  UNL1        0.0370
     15 C         142.9133  139.9112  169.5931 C.ar    1  UNL1        0.1387
     16 C         142.4828  139.2870  168.2989 C.ar    1  UNL1        0.0370
     17 C         141.9939  140.1518  167.1751 C.ar    1  UNL1        0.0061
     18 O         143.4023  139.0464  170.7169 O.3     1  UNL1       -0.4714
     19 C         143.3611  137.5527  170.5863 C.3     1  UNL1        0.2525
     20 C         145.2100  140.6901  163.5426 C.3     1  UNL1        0.1109
     21 N         143.8185  141.1404  163.8759 N.am    1  UNL1       -0.2991
     22 C         143.6054  142.4082  164.6489 C.2     1  UNL1        0.2490
     23 O         144.7837  143.2256  165.0885 O.2     1  UNL1       -0.2700
     24 H         143.0451  140.6039  163.5874 H       1  UNL1        0.1498
     25 C         142.8787  144.2008  162.0880 C.3     1  UNL1        0.1023
     26 N         143.0820  143.0027  161.2086 N.3     1  UNL1       -0.2687
     27 C         144.3495  142.6387  160.4937 C.3     1  UNL1        0.0726
     28 C         144.1045  141.3693  159.7330 C.3     1  UNL1        0.0235
     29 C         142.6856  140.9487  159.9778 C.3     1  UNL1        0.0707
     30 C         141.3160  140.3460  160.0821 C.3     1  UNL1        0.1458
     31 O         141.7388  139.2284  159.1752 O.3     1  UNL1       -0.3535
     32 C         143.1084  139.8313  159.0711 C.3     1  UNL1        0.1458
     33 C         142.0537  141.9583  160.8898 C.3     1  UNL1        0.0772
@<TRIPOS>BOND
     1    20    21    1
     2    21    22   am
     3    22    23    2
     4    22     1    1
     5     1     2   ar
     6     2    12    1
     7    12    13   ar
     8    13    14   ar
     9    14    15   ar
    10    15    18    1
    11    18    19    1
    12    15    16   ar
    13    16    17   ar
    14     2     3   ar
    15     3     4   ar
    16     4     5   ar
    17     5     6   ar
    18     6     7   ar
    19     7     8    1
    20     7     9   ar
    21     9    25    1
    22    25    26    1
    23    26    27    1
    24    27    28    1
    25    28    29    1
    26    29    30    1
    27    30    31    1
    28    31    32    1
    29    29    33    1
    30     9    10   ar
    31    10     1   ar
    32    17    12   ar
    33    10     4   ar
    34    33    26    1
    35    32    29    1
    36    21    24    1
    37     8    11    1
@<TRIPOS>MOLECULE
*****
 33 37 0 0 0
SMALL
GASTEIGER

@<TRIPOS>ATOM
      1 C         141.2901  142.8168  164.0944 C.ar    1  UNL1        0.0906
      2 C         140.2036  142.9307  165.1224 C.ar    1  UNL1        0.1496
      3 O         139.2442  143.9902  164.6672 O.2     1  UNL1       -0.4534
      4 C         139.7377  144.5310  163.3581 C.ar    1  UNL1        0.1454
      5 C         139.1991  145.5901  162.4426 C.ar    1  UNL1        0.0406
      6 C         139.9249  145.9240  161.1731 C.ar    1  UNL1        0.0395
      7 C         141.1894  145.1989  160.8191 C.ar    1  UNL1        0.1311
      8 O         141.9152  145.5328  159.5495 O.3     1  UNL1       -0.5058
      9 C         141.7280  144.1397  161.7346 C.ar    1  UNL1        0.0308
     10 C         141.0022  143.8058  163.0040 C.ar    1  UNL1        0.0421
     11 H         141.5787  146.1944  158.9777 H       1  UNL1        0.2922
     12 C         140.0955  142.1264  166.3839 C.ar    1  UNL1        0.0349
     13 C         139.5429  140.7327  166.3397 C.ar    1  UNL1        0.0061
     14 C         139.4348  139.9284  167.6012 C.ar    1  UNL1        0.0370
     15 C         139.8793  140.5178  168.9069 C.ar    1  UNL1        0.1387
     16 C         140.4320  141.9116  168.9511 C.ar    1  UNL1        0.0370
     17 C         140.5400  142.7159  167.6896 C.ar    1  UNL1        0.0061
     18 O         139.7713  139.7135  170.1684 O.3     1  UNL1       -0.4714
     19 C         140.5169  140.1421  171.3974 C.3     1  UNL1        0.2525
     20 C         143.5010  139.5513  163.6487 C.3     1  UNL1        0.1109
     21 N         142.3319  140.4895  163.5956 N.am    1  UNL1       -0.2991
     22 C         142.4592  141.8786  164.1476 C.2     1  UNL1        0.2490
     23 O         143.7556  142.3292  164.7525 O.2     1  UNL1       -0.2700
     24 H         141.4810  140.1937  163.1985 H       1  UNL1        0.1498
     25 C         142.9924  143.4145  161.3805 C.3     1  UNL1        0.1023
     26 N         142.9258  142.0698  160.7194 N.3     1  UNL1       -0.2687
     27 C         144.0932  141.1789  160.4133 C.3     1  UNL1        0.0726
     28 C         143.5690  139.9383  159.7530 C.3     1  UNL1        0.0235
     29 C         142.0775  140.0624  159.6508 C.3     1  UNL1        0.0707
     30 C         140.5942  139.9747  159.4465 C.3     1  UNL1        0.1458
     31 O         140.7616  138.6270  158.8094 O.3     1  UNL1       -0.3535
     32 C         142.2451  138.7148  159.0138 C.3     1  UNL1        0.1458
     33 C         141.6800  141.3798  160.2481 C.3     1  UNL1        0.0772
@<TRIPOS>BOND
     1    20    21    1
     2    21    22   am
     3    22    23    2
     4    22     1    1
     5     1     2   ar
     6     2    12    1
     7    12    13   ar
     8    13    14   ar
     9    14    15   ar
    10    15    18    1
    11    18    19    1
    12    15    16   ar
    13    16    17   ar
    14     2     3   ar
    15     3     4   ar
    16     4     5   ar
    17     5     6   ar
    18     6     7   ar
    19     7     8    1
    20     7     9   ar
    21     9    25    1
    22    25    26    1
    23    26    27    1
    24    27    28    1
    25    28    29    1
    26    29    30    1
    27    30    31    1
    28    31    32    1
    29    29    33    1
    30     9    10   ar
    31    10     1   ar
    32    17    12   ar
    33    10     4   ar
    34    33    26    1
    35    32    29    1
    36    21    24    1
    37     8    11    1
@<TRIPOS>MOLECULE
*****
 33 37 0 0 0
SMALL
GASTEIGER

@<TRIPOS>ATOM
      1 C         140.0873  141.4447  165.3660 C.ar    1  UNL1        0.0906
      2 C         140.6176  140.8618  166.6423 C.ar    1  UNL1        0.1496
      3 O         140.4004  139.3782  166.5997 O.2     1  UNL1       -0.4534
      4 C         139.7358  139.0442  165.2971 C.ar    1  UNL1        0.1454
      5 C         139.2818  137.7421  164.7068 C.ar    1  UNL1        0.0406
      6 C         138.6344  137.7173  163.3540 C.ar    1  UNL1        0.0395
      7 C         138.4409  138.9944  162.5915 C.ar    1  UNL1        0.1311
      8 O         137.7934  138.9695  161.2386 O.3     1  UNL1       -0.5058
      9 C         138.8948  140.2965  163.1818 C.ar    1  UNL1        0.0308
     10 C         139.5423  140.3214  164.5346 C.ar    1  UNL1        0.0421
     11 H         137.5098  138.1561  160.8699 H       1  UNL1        0.2922
     12 C         141.2535  141.6279  167.7642 C.ar    1  UNL1        0.0349
     13 C         142.7411  141.5861  167.9524 C.ar    1  UNL1        0.0061
     14 C         143.3770  142.3523  169.0743 C.ar    1  UNL1        0.0370
     15 C         142.5253  143.1601  170.0080 C.ar    1  UNL1        0.1387
     16 C         141.0378  143.2019  169.8199 C.ar    1  UNL1        0.0370
     17 C         140.4019  142.4358  168.6980 C.ar    1  UNL1        0.0061
     18 O         143.1613  143.9263  171.1299 O.3     1  UNL1       -0.4714
     19 C         144.6462  144.1374  171.1468 C.3     1  UNL1        0.2525
     20 C         141.3018  144.9285  163.9038 C.3     1  UNL1        0.1109
     21 N         141.2894  143.4771  164.2823 N.am    1  UNL1       -0.2991
     22 C         140.0997  142.8961  164.9876 C.2     1  UNL1        0.2490
     23 O         138.9227  143.7665  165.3142 O.2     1  UNL1       -0.2700
     24 H         142.0619  142.9058  164.0679 H       1  UNL1        0.1498
     25 C         138.7013  141.5737  162.4194 C.3     1  UNL1        0.1023
     26 N         139.8173  142.1234  161.5814 N.3     1  UNL1       -0.2687
     27 C         141.0898  141.4108  161.2304 C.3     1  UNL1        0.0726
     28 C         141.9158  142.3292  160.3794 C.3     1  UNL1        0.0235
     29 C         141.1540  143.6095  160.2045 C.3     1  UNL1        0.0707
     30 C         140.5760  144.9599  159.9007 C.3     1  UNL1        0.1458
     31 O         141.7976  145.3026  159.1004 O.3     1  UNL1       -0.3535
     32 C         142.3755  143.9521  159.4043 C.3     1  UNL1        0.1458
     33 C         139.8570  143.4822  160.9474 C.3     1  UNL1        0.0772
@<TRIPOS>BOND
     1    20    21    1
     2    21    22   am
     3    22    23    2
     4    22     1    1
     5     1     2   ar
     6     2    12    1
     7    12    13   ar
     8    13    14   ar
     9    14    15   ar
    10    15    18    1
    11    18    19    1
    12    15    16   ar
    13    16    17   ar
    14     2     3   ar
    15     3     4   ar
    16     4     5   ar
    17     5     6   ar
    18     6     7   ar
    19     7     8    1
    20     7     9   ar
    21     9    25    1
    22    25    26    1
    23    26    27    1
    24    27    28    1
    25    28    29    1
    26    29    30    1
    27    30    31    1
    28    31    32    1
    29    29    33    1
    30     9    10   ar
    31    10     1   ar
    32    17    12   ar
    33    10     4   ar
    34    33    26    1
    35    32    29    1
    36    21    24    1
    37     8    11    1
@<TRIPOS>MOLECULE
*****
 33 37 0 0 0
SMALL
GASTEIGER

@<TRIPOS>ATOM
      1 C         141.4039  142.8554  164.1625 C.ar    1  UNL1        0.0906
      2 C         140.2652  142.9208  165.1367 C.ar    1  UNL1        0.1496
      3 O         139.2509  143.8867  164.5999 O.2     1  UNL1       -0.4534
      4 C         139.7627  144.4184  163.2940 C.ar    1  UNL1        0.1454
      5 C         139.1891  145.4005  162.3161 C.ar    1  UNL1        0.0406
      6 C         139.9460  145.7453  161.0679 C.ar    1  UNL1        0.0395
      7 C         141.2767  145.1079  160.7976 C.ar    1  UNL1        0.1311
      8 O         142.0337  145.4527  159.5493 O.3     1  UNL1       -0.5058
      9 C         141.8504  144.1258  161.7754 C.ar    1  UNL1        0.0308
     10 C         141.0934  143.7810  163.0236 C.ar    1  UNL1        0.0421
     11 H         141.6753  146.0662  158.9384 H       1  UNL1        0.2922
     12 C         140.1594  142.1547  166.4219 C.ar    1  UNL1        0.0349
     13 C         140.4726  142.8287  167.7248 C.ar    1  UNL1        0.0061
     14 C         140.3668  142.0626  169.0100 C.ar    1  UNL1        0.0370
     15 C         139.9477  140.6225  168.9924 C.ar    1  UNL1        0.1387
     16 C         139.6344  139.9485  167.6896 C.ar    1  UNL1        0.0370
     17 C         139.7403  140.7146  166.4043 C.ar    1  UNL1        0.0061
     18 O         139.8419  139.8564  170.2777 O.3     1  UNL1       -0.4714
     19 C         140.7545  140.1825  171.4226 C.3     1  UNL1        0.2525
     20 C         143.8831  139.7666  163.9118 C.3     1  UNL1        0.1109
     21 N         142.6503  140.6095  163.7718 N.am    1  UNL1       -0.2991
     22 C         142.6367  142.0125  164.3025 C.2     1  UNL1        0.2490
     23 O         143.8560  142.5724  164.9731 O.2     1  UNL1       -0.2700
     24 H         141.8501  140.2420  163.3316 H       1  UNL1        0.1498
     25 C         143.1810  143.4884  161.5051 C.3     1  UNL1        0.1023
     26 N         143.3354  142.5311  160.3607 N.3     1  UNL1       -0.2687
     27 C         142.4976  141.3119  160.1118 C.3     1  UNL1        0.0726
     28 C         142.9991  140.6521  158.8615 C.3     1  UNL1        0.0235
     29 C         144.1468  141.4635  158.3375 C.3     1  UNL1        0.0707
     30 C         145.3044  142.1152  157.6411 C.3     1  UNL1        0.1458
     31 O         145.2774  141.0427  156.5926 O.3     1  UNL1       -0.3535
     32 C         144.1197  140.3911  157.2892 C.3     1  UNL1        0.1458
     33 C         144.3546  142.6248  159.2641 C.3     1  UNL1        0.0772
@<TRIPOS>BOND
     1    20    21    1
     2    21    22   am
     3    22    23    2
     4    22     1    1
     5     1     2   ar
     6     2    12    1
     7    12    13   ar
     8    13    14   ar
     9    14    15   ar
    10    15    18    1
    11    18    19    1
    12    15    16   ar
    13    16    17   ar
    14     2     3   ar
    15     3     4   ar
    16     4     5   ar
    17     5     6   ar
    18     6     7   ar
    19     7     8    1
    20     7     9   ar
    21     9    25    1
    22    25    26    1
    23    26    27    1
    24    27    28    1
    25    28    29    1
    26    29    30    1
    27    30    31    1
    28    31    32    1
    29    29    33    1
    30     9    10   ar
    31    10     1   ar
    32    17    12   ar
    33    10     4   ar
    34    33    26    1
    35    32    29    1
    36    21    24    1
    37     8    11    1
@<TRIPOS>MOLECULE
*****
 33 37 0 0 0
SMALL
GASTEIGER

@<TRIPOS>ATOM
      1 C         142.7142  140.4123  163.9395 C.ar    1  UNL1        0.0906
      2 C         142.1431  139.3549  164.8372 C.ar    1  UNL1        0.1496
      3 O         142.0336  138.0851  164.0462 O.2     1  UNL1       -0.4534
      4 C         142.5371  138.3577  162.6598 C.ar    1  UNL1        0.1454
      5 C         142.6669  137.4820  161.4489 C.ar    1  UNL1        0.0406
      6 C         143.2174  138.0447  160.1720 C.ar    1  UNL1        0.0395
      7 C         143.6380  139.4830  160.1061 C.ar    1  UNL1        0.1311
      8 O         144.1885  140.0456  158.8292 O.3     1  UNL1       -0.5058
      9 C         143.5082  140.3586  161.3170 C.ar    1  UNL1        0.0308
     10 C         142.9578  139.7960  162.5938 C.ar    1  UNL1        0.0421
     11 H         144.2696  139.4986  158.0727 H       1  UNL1        0.2922
     12 C         141.7503  139.5356  166.2735 C.ar    1  UNL1        0.0349
     13 C         142.7670  139.3415  167.3591 C.ar    1  UNL1        0.0061
     14 C         142.3742  139.5222  168.7955 C.ar    1  UNL1        0.0370
     15 C         140.9648  139.8970  169.1462 C.ar    1  UNL1        0.1387
     16 C         139.9481  140.0911  168.0605 C.ar    1  UNL1        0.0370
     17 C         140.3409  139.9104  166.6242 C.ar    1  UNL1        0.0061
     18 O         140.5720  140.0777  170.5825 O.3     1  UNL1       -0.4714
     19 C         140.9579  141.3292  171.3138 C.3     1  UNL1        0.2525
     20 C         144.6324  143.6509  165.1973 C.3     1  UNL1        0.1109
     21 N         144.3537  142.2272  164.8162 N.am    1  UNL1       -0.2991
     22 C         142.9929  141.8360  164.3207 C.2     1  UNL1        0.2490
     23 O         141.9111  142.8686  164.2063 O.2     1  UNL1       -0.2700
     24 H         145.0638  141.5495  164.8913 H       1  UNL1        0.1498
     25 C         143.9289  141.7969  161.2511 C.3     1  UNL1        0.1023
     26 N         143.1064  142.7842  160.4773 N.3     1  UNL1       -0.2687
     27 C         143.3080  143.1659  159.0407 C.3     1  UNL1        0.0726
     28 C         142.2641  144.1807  158.6798 C.3     1  UNL1        0.0235
     29 C         141.4172  144.4263  159.8933 C.3     1  UNL1        0.0707
     30 C         140.4522  144.8233  160.9708 C.3     1  UNL1        0.1458
     31 O         139.7722  145.7600  160.0167 O.3     1  UNL1       -0.3535
     32 C         140.7373  145.3630  158.9392 C.3     1  UNL1        0.1458
     33 C         141.9378  143.5632  161.0042 C.3     1  UNL1        0.0772
@<TRIPOS>BOND
     1    20    21    1
     2    21    22   am
     3    22    23    2
     4    22     1    1
     5     1     2   ar
     6     2    12    1
     7    12    13   ar
     8    13    14   ar
     9    14    15   ar
    10    15    18    1
    11    18    19    1
    12    15    16   ar
    13    16    17   ar
    14     2     3   ar
    15     3     4   ar
    16     4     5   ar
    17     5     6   ar
    18     6     7   ar
    19     7     8    1
    20     7     9   ar
    21     9    25    1
    22    25    26    1
    23    26    27    1
    24    27    28    1
    25    28    29    1
    26    29    30    1
    27    30    31    1
    28    31    32    1
    29    29    33    1
    30     9    10   ar
    31    10     1   ar
    32    17    12   ar
    33    10     4   ar
    34    33    26    1
    35    32    29    1
    36    21    24    1
    37     8    11    1
@<TRIPOS>MOLECULE
*****
 33 37 0 0 0
SMALL
GASTEIGER

@<TRIPOS>ATOM
      1 C         141.6561  140.5585  165.3393 C.ar    1  UNL1        0.0906
      2 C         141.1048  140.5556  166.7343 C.ar    1  UNL1        0.1496
      3 O         139.9609  139.5863  166.7784 O.2     1  UNL1       -0.4534
      4 C         139.8053  138.9901  165.4108 C.ar    1  UNL1        0.1454
      5 C         138.8450  137.9778  164.8605 C.ar    1  UNL1        0.0406
      6 C         138.9324  137.5663  163.4207 C.ar    1  UNL1        0.0395
      7 C         139.9802  138.1672  162.5313 C.ar    1  UNL1        0.1311
      8 O         140.0676  137.7557  161.0914 O.3     1  UNL1       -0.5058
      9 C         140.9405  139.1796  163.0816 C.ar    1  UNL1        0.0308
     10 C         140.8531  139.5910  164.5213 C.ar    1  UNL1        0.0421
     11 H         139.4677  137.1233  160.7477 H       1  UNL1        0.2922
     12 C         141.6087  141.3777  167.8833 C.ar    1  UNL1        0.0349
     13 C         140.7696  142.4932  168.4323 C.ar    1  UNL1        0.0061
     14 C         141.2736  143.3152  169.5813 C.ar    1  UNL1        0.0370
     15 C         142.6167  143.0218  170.1813 C.ar    1  UNL1        0.1387
     16 C         143.4558  141.9063  169.6322 C.ar    1  UNL1        0.0370
     17 C         142.9518  141.0842  168.4832 C.ar    1  UNL1        0.0061
     18 O         143.1207  143.8439  171.3303 O.3     1  UNL1       -0.4714
     19 C         144.5261  144.3677  171.3181 C.3     1  UNL1        0.2525
     20 C         143.7489  143.6478  163.9874 C.3     1  UNL1        0.1109
     21 N         142.5967  142.8223  164.4783 N.am    1  UNL1       -0.2991
     22 C         142.8084  141.3840  164.8484 C.2     1  UNL1        0.2490
     23 O         144.1721  140.7715  164.7275 O.2     1  UNL1       -0.2700
     24 H         141.7016  143.2244  164.5577 H       1  UNL1        0.1498
     25 C         141.9882  139.7804  162.1921 C.3     1  UNL1        0.1023
     26 N         141.8012  141.1628  161.6408 N.3     1  UNL1       -0.2687
     27 C         142.8358  141.9695  160.9134 C.3     1  UNL1        0.0726
     28 C         142.2207  143.2865  160.5431 C.3     1  UNL1        0.0235
     29 C         140.8059  143.2939  161.0416 C.3     1  UNL1        0.0707
     30 C         139.3794  143.5174  161.4478 C.3     1  UNL1        0.1458
     31 O         139.4159  144.8817  160.8253 O.3     1  UNL1       -0.3535
     32 C         140.8425  144.6581  160.4192 C.3     1  UNL1        0.1458
     33 C         140.5467  141.9814  161.7200 C.3     1  UNL1        0.0772
@<TRIPOS>BOND
     1    20    21    1
     2    21    22   am
     3    22    23    2
     4    22     1    1
     5     1     2   ar
     6     2    12    1
     7    12    13   ar
     8    13    14   ar
     9    14    15   ar
    10    15    18    1
    11    18    19    1
    12    15    16   ar
    13    16    17   ar
    14     2     3   ar
    15     3     4   ar
    16     4     5   ar
    17     5     6   ar
    18     6     7   ar
    19     7     8    1
    20     7     9   ar
    21     9    25    1
    22    25    26    1
    23    26    27    1
    24    27    28    1
    25    28    29    1
    26    29    30    1
    27    30    31    1
    28    31    32    1
    29    29    33    1
    30     9    10   ar
    31    10     1   ar
    32    17    12   ar
    33    10     4   ar
    34    33    26    1
    35    32    29    1
    36    21    24    1
    37     8    11    1
@<TRIPOS>MOLECULE
*****
 33 37 0 0 0
SMALL
GASTEIGER

@<TRIPOS>ATOM
      1 C         139.5694  141.0324  164.4014 C.ar    1  UNL1        0.0906
      2 C         139.9504  140.1430  165.5476 C.ar    1  UNL1        0.1496
      3 O         139.5936  138.7335  165.1790 O.2     1  UNL1       -0.4534
      4 C         138.9922  138.7517  163.8050 C.ar    1  UNL1        0.1454
      5 C         138.4562  137.6581  162.9294 C.ar    1  UNL1        0.0406
      6 C         137.9052  137.9853  161.5732 C.ar    1  UNL1        0.0395
      7 C         137.8902  139.4062  161.0926 C.ar    1  UNL1        0.1311
      8 O         137.3392  139.7334  159.7364 O.3     1  UNL1       -0.5058
      9 C         138.4262  140.4998  161.9682 C.ar    1  UNL1        0.0308
     10 C         138.9772  140.1726  163.3244 C.ar    1  UNL1        0.0421
     11 H         137.0044  139.0502  159.1894 H       1  UNL1        0.2922
     12 C         140.5780  140.5855  166.8362 C.ar    1  UNL1        0.0349
     13 C         139.8092  140.4803  168.1198 C.ar    1  UNL1        0.0061
     14 C         140.4368  140.9227  169.4084 C.ar    1  UNL1        0.0370
     15 C         141.8331  141.4705  169.4133 C.ar    1  UNL1        0.1387
     16 C         142.6019  141.5757  168.1296 C.ar    1  UNL1        0.0370
     17 C         141.9744  141.1333  166.8411 C.ar    1  UNL1        0.0061
     18 O         142.4607  141.9129  170.7018 O.3     1  UNL1       -0.4714
     19 C         143.1192  143.2576  170.7924 C.3     1  UNL1        0.2525
     20 C         138.8851  144.9137  164.8681 C.3     1  UNL1        0.1109
     21 N         138.7055  143.4257  164.9270 N.am    1  UNL1       -0.2991
     22 C         139.7491  142.5205  164.3425 C.2     1  UNL1        0.2490
     23 O         140.9722  143.1034  163.6991 O.2     1  UNL1       -0.2700
     24 H         137.9026  143.0431  165.3493 H       1  UNL1        0.1498
     25 C         138.4112  141.9206  161.4876 C.3     1  UNL1        0.1023
     26 N         139.5351  142.4373  160.6392 N.3     1  UNL1       -0.2687
     27 C         140.5555  141.6025  159.9237 C.3     1  UNL1        0.0726
     28 C         141.4871  142.5287  159.1996 C.3     1  UNL1        0.0235
     29 C         141.0425  143.9360  159.4676 C.3     1  UNL1        0.0707
     30 C         140.7791  145.4068  159.5996 C.3     1  UNL1        0.1458
     31 O         141.9588  145.6970  158.7197 O.3     1  UNL1       -0.3535
     32 C         142.2221  144.2262  158.5878 C.3     1  UNL1        0.1458
     33 C         139.8361  143.8795  160.3574 C.3     1  UNL1        0.0772
@<TRIPOS>BOND
     1    20    21    1
     2    21    22   am
     3    22    23    2
     4    22     1    1
     5     1     2   ar
     6     2    12    1
     7    12    13   ar
     8    13    14   ar
     9    14    15   ar
    10    15    18    1
    11    18    19    1
    12    15    16   ar
    13    16    17   ar
    14     2     3   ar
    15     3     4   ar
    16     4     5   ar
    17     5     6   ar
    18     6     7   ar
    19     7     8    1
    20     7     9   ar
    21     9    25    1
    22    25    26    1
    23    26    27    1
    24    27    28    1
    25    28    29    1
    26    29    30    1
    27    30    31    1
    28    31    32    1
    29    29    33    1
    30     9    10   ar
    31    10     1   ar
    32    17    12   ar
    33    10     4   ar
    34    33    26    1
    35    32    29    1
    36    21    24    1
    37     8    11    1
@<TRIPOS>MOLECULE
*****
 33 37 0 0 0
SMALL
GASTEIGER

@<TRIPOS>ATOM
      1 C         141.3992  141.8593  162.7257 C.ar    1  UNL1        0.0906
      2 C         142.1388  142.3853  161.5315 C.ar    1  UNL1        0.1496
      3 O         143.5422  141.8586  161.5865 O.2     1  UNL1       -0.4534
      4 C         143.6700  141.0070  162.8147 C.ar    1  UNL1        0.1454
      5 C         144.8212  140.2314  163.3830 C.ar    1  UNL1        0.0406
      6 C         144.6480  139.4561  164.6553 C.ar    1  UNL1        0.0395
      7 C         143.3235  139.4565  165.3594 C.ar    1  UNL1        0.1311
      8 O         143.1503  138.6812  166.6319 O.3     1  UNL1       -0.5058
      9 C         142.1723  140.2322  164.7912 C.ar    1  UNL1        0.0308
     10 C         142.3455  141.0075  163.5189 C.ar    1  UNL1        0.0421
     11 H         143.8695  138.1967  166.9868 H       1  UNL1        0.2922
     12 C         141.5741  143.2807  160.4688 C.ar    1  UNL1        0.0349
     13 C         141.3951  142.7658  159.0714 C.ar    1  UNL1        0.0061
     14 C         140.8305  143.6613  158.0087 C.ar    1  UNL1        0.0370
     15 C         140.4448  145.0716  158.3434 C.ar    1  UNL1        0.1387
     16 C         140.6238  145.5865  159.7408 C.ar    1  UNL1        0.0370
     17 C         141.1884  144.6911  160.8035 C.ar    1  UNL1        0.0061
     18 O         139.8801  145.9671  157.2807 O.3     1  UNL1       -0.4714
     19 C         140.6703  146.2450  156.0364 C.3     1  UNL1        0.2525
     20 C         137.4561  141.4711  162.9534 C.3     1  UNL1        0.1109
     21 N         138.8902  141.1940  162.6121 N.am    1  UNL1       -0.2991
     22 C         139.9651  142.1364  163.0670 C.2     1  UNL1        0.2490
     23 O         139.6057  143.3557  163.8632 O.2     1  UNL1       -0.2700
     24 H         139.1261  140.3937  162.0895 H       1  UNL1        0.1498
     25 C         140.8478  140.2327  165.4953 C.3     1  UNL1        0.1023
     26 N         140.6883  140.9684  166.7927 N.3     1  UNL1       -0.2687
     27 C         140.8222  142.4496  166.9885 C.3     1  UNL1        0.0726
     28 C         140.5836  142.7489  168.4389 C.3     1  UNL1        0.0235
     29 C         140.3023  141.4527  169.1395 C.3     1  UNL1        0.0707
     30 C         139.9996  140.2876  170.0343 C.3     1  UNL1        0.1458
     31 O         139.8861  141.2171  171.2062 O.3     1  UNL1       -0.3535
     32 C         140.1888  142.3822  170.3112 C.3     1  UNL1        0.1458
     33 C         140.3670  140.3523  168.1220 C.3     1  UNL1        0.0772
@<TRIPOS>BOND
     1    20    21    1
     2    21    22   am
     3    22    23    2
     4    22     1    1
     5     1     2   ar
     6     2    12    1
     7    12    13   ar
     8    13    14   ar
     9    14    15   ar
    10    15    18    1
    11    18    19    1
    12    15    16   ar
    13    16    17   ar
    14     2     3   ar
    15     3     4   ar
    16     4     5   ar
    17     5     6   ar
    18     6     7   ar
    19     7     8    1
    20     7     9   ar
    21     9    25    1
    22    25    26    1
    23    26    27    1
    24    27    28    1
    25    28    29    1
    26    29    30    1
    27    30    31    1
    28    31    32    1
    29    29    33    1
    30     9    10   ar
    31    10     1   ar
    32    17    12   ar
    33    10     4   ar
    34    33    26    1
    35    32    29    1
    36    21    24    1
    37     8    11    1
@<TRIPOS>MOLECULE
*****
 33 37 0 0 0
SMALL
GASTEIGER

@<TRIPOS>ATOM
      1 C         141.2498  141.5945  162.9349 C.ar    1  UNL1        0.0906
      2 C         140.8132  141.4400  161.5082 C.ar    1  UNL1        0.1496
      3 O         139.6003  142.2975  161.2993 O.2     1  UNL1       -0.4534
      4 C         139.2873  142.9819  162.5968 C.ar    1  UNL1        0.1454
      5 C         138.2058  143.9446  162.9884 C.ar    1  UNL1        0.0406
      6 C         138.1437  144.4729  164.3909 C.ar    1  UNL1        0.0395
      7 C         139.1631  144.0384  165.4018 C.ar    1  UNL1        0.1311
      8 O         139.1010  144.5667  166.8044 O.3     1  UNL1       -0.5058
      9 C         140.2447  143.0757  165.0102 C.ar    1  UNL1        0.0308
     10 C         140.3068  142.5475  163.6077 C.ar    1  UNL1        0.0421
     11 H         138.4253  145.1681  167.0490 H       1  UNL1        0.2922
     12 C         141.4735  140.5792  160.4724 C.ar    1  UNL1        0.0349
     13 C         140.9331  139.2111  160.1787 C.ar    1  UNL1        0.0061
     14 C         141.5934  138.3503  159.1429 C.ar    1  UNL1        0.0370
     15 C         142.7941  138.8575  158.4007 C.ar    1  UNL1        0.1387
     16 C         143.3345  140.2256  158.6943 C.ar    1  UNL1        0.0370
     17 C         142.6742  141.0864  159.7302 C.ar    1  UNL1        0.0061
     18 O         143.4544  137.9967  157.3648 O.3     1  UNL1       -0.4714
     19 C         142.7996  136.7226  156.9202 C.3     1  UNL1        0.2525
     20 C         144.9780  140.7919  164.0333 C.3     1  UNL1        0.1109
     21 N         143.8045  141.4711  163.3919 N.am    1  UNL1       -0.2991
     22 C         142.4234  140.9153  163.5763 C.2     1  UNL1        0.2490
     23 O         142.2161  139.6804  164.4021 O.2     1  UNL1       -0.2700
     24 H         143.9406  142.2816  162.8499 H       1  UNL1        0.1498
     25 C         141.2641  142.6412  166.0211 C.3     1  UNL1        0.1023
     26 N         140.8373  141.8614  167.2293 N.3     1  UNL1       -0.2687
     27 C         140.0359  140.5934  167.2224 C.3     1  UNL1        0.0726
     28 C         139.8401  140.1610  168.6453 C.3     1  UNL1        0.0235
     29 C         140.5206  141.1617  169.5317 C.3     1  UNL1        0.0707
     30 C         141.1258  142.0282  170.5960 C.3     1  UNL1        0.1458
     31 O         140.5978  141.1014  171.6507 O.3     1  UNL1       -0.3535
     32 C         139.9925  140.2350  170.5863 C.3     1  UNL1        0.1458
     33 C         141.1368  142.2127  168.6565 C.3     1  UNL1        0.0772
@<TRIPOS>BOND
     1    20    21    1
     2    21    22   am
     3    22    23    2
     4    22     1    1
     5     1     2   ar
     6     2    12    1
     7    12    13   ar
     8    13    14   ar
     9    14    15   ar
    10    15    18    1
    11    18    19    1
    12    15    16   ar
    13    16    17   ar
    14     2     3   ar
    15     3     4   ar
    16     4     5   ar
    17     5     6   ar
    18     6     7   ar
    19     7     8    1
    20     7     9   ar
    21     9    25    1
    22    25    26    1
    23    26    27    1
    24    27    28    1
    25    28    29    1
    26    29    30    1
    27    30    31    1
    28    31    32    1
    29    29    33    1
    30     9    10   ar
    31    10     1   ar
    32    17    12   ar
    33    10     4   ar
    34    33    26    1
    35    32    29    1
    36    21    24    1
    37     8    11    1
