@<TRIPOS>MOLECULE
*****
 27 30 0 0 0
SMALL
GASTEIGER

@<TRIPOS>ATOM
      1 C         143.2399  143.8784  162.4089 C.2     1  UNL1        0.3179
      2 N         143.9474  143.6200  161.1117 N.2     1  UNL1        0.0095
      3 C         144.8428  142.4248  160.9709 C.2     1  UNL1        0.4717
      4 N         145.0307  141.4881  162.1273 N.2     1  UNL1        0.0158
      5 C         144.3232  141.7465  163.4244 C.2     1  UNL1        0.3712
      6 N         144.3146  141.0047  164.7281 N.2     1  UNL1       -0.0378
      7 C         143.4139  141.7415  165.6747 C.2     1  UNL1        0.1900
      8 C         142.8658  142.9386  164.9560 C.2     1  UNL1        0.0447
      9 C         143.4279  142.9416  163.5652 C.3     1  UNL1        0.2425
     10 C         143.1139  141.3498  167.0913 C.ar    1  UNL1        0.0427
     11 C         142.6385  139.9612  167.4009 C.ar    1  UNL1        0.0037
     12 C         142.3386  139.5696  168.8174 C.ar    1  UNL1        0.0001
     13 C         142.5140  140.5666  169.9244 C.ar    1  UNL1        0.0000
     14 C         142.9895  141.9551  169.6148 C.ar    1  UNL1        0.0001
     15 C         143.2894  142.3467  168.1983 C.ar    1  UNL1        0.0037
     16 N         142.3445  145.0736  162.5497 N.pl3   1  UNL1       -0.2192
     17 H         142.6745  145.8859  162.9976 H       1  UNL1        0.2922
     18 CA        140.9463  145.0312  162.0082 C.3     1  UNL1        0.2087
     19 C         139.8175  144.5695  162.8814 C.ar    1  UNL1        0.0222
     20 C         139.7585  144.9953  164.3186 C.ar    1  UNL1       -0.0004
     21 C         138.6297  144.5336  165.1918 C.ar    1  UNL1       -0.0002
     22 C         137.5599  143.6461  164.6280 C.ar    1  UNL1       -0.0000
     23 C         137.6189  143.2203  163.1909 C.ar    1  UNL1       -0.0002
     24 C         138.7477  143.6820  162.3176 C.ar    1  UNL1       -0.0004
     25 O         141.8108  145.5751  159.6193 O.3     1  UNL1       -0.3780
     26 C         140.6770  145.4505  160.5933 C.3     1  UNL1        0.1886
     27 H         141.4665  145.8533  158.7561 H       1  UNL1        0.2106
@<TRIPOS>BOND
     1    25    26    1
     2    18    26    1
     3    18    16    1
     4    16     1    1
     5     1     2    2
     6     2     3    1
     7     3     4    2
     8     4     5    1
     9     5     6    2
    10     6     7    1
    11     7    10    1
    12    10    11   ar
    13    11    12   ar
    14    12    13   ar
    15    13    14   ar
    16    14    15   ar
    17     7     8    2
    18     8     9    1
    19    18    19    1
    20    19    20   ar
    21    20    21   ar
    22    21    22   ar
    23    22    23   ar
    24    23    24   ar
    25     9     1    1
    26    24    19   ar
    27     9     5    1
    28    15    10   ar
    29    25    27    1
    30    16    17    1
@<TRIPOS>MOLECULE
*****
 27 30 0 0 0
SMALL
GASTEIGER

@<TRIPOS>ATOM
      1 C         138.6390  143.3331  163.1159 C.2     1  UNL1        0.3179
      2 N         137.7207  142.4947  162.2770 N.2     1  UNL1        0.0095
      3 C         137.3274  141.1226  162.7378 C.2     1  UNL1        0.4717
      4 N         137.8524  140.5887  164.0376 N.2     1  UNL1        0.0158
      5 C         138.7706  141.4271  164.8765 C.2     1  UNL1        0.3712
      6 N         139.4416  141.1703  166.1933 N.2     1  UNL1       -0.0378
      7 C         140.2496  142.3838  166.5463 C.2     1  UNL1        0.1900
      8 C         140.0780  143.3906  165.4477 C.2     1  UNL1        0.0447
      9 C         139.1639  142.7993  164.4157 C.3     1  UNL1        0.2425
     10 C         141.0829  142.5597  167.7812 C.ar    1  UNL1        0.0427
     11 C         140.4940  143.2120  168.9967 C.ar    1  UNL1        0.0037
     12 C         141.3273  143.3878  170.2315 C.ar    1  UNL1        0.0001
     13 C         142.7494  142.9112  170.2507 C.ar    1  UNL1        0.0000
     14 C         143.3383  142.2588  169.0352 C.ar    1  UNL1        0.0001
     15 C         142.5050  142.0831  167.8004 C.ar    1  UNL1        0.0037
     16 N         139.0324  144.7053  162.6551 N.pl3   1  UNL1       -0.2192
     17 H         138.4386  145.4715  162.8274 H       1  UNL1        0.2922
     18 CA        140.3304  144.9102  161.9317 C.3     1  UNL1        0.2087
     19 C         141.6181  144.4697  162.5624 C.ar    1  UNL1        0.0222
     20 C         142.3341  145.3775  163.5182 C.ar    1  UNL1       -0.0004
     21 C         143.6218  144.9371  164.1489 C.ar    1  UNL1       -0.0002
     22 C         144.1935  143.5889  163.8238 C.ar    1  UNL1       -0.0000
     23 C         143.4776  142.6812  162.8681 C.ar    1  UNL1       -0.0002
     24 C         142.1898  143.1216  162.2374 C.ar    1  UNL1       -0.0004
     25 O         141.6209  145.6505  159.8018 O.3     1  UNL1       -0.3780
     26 C         140.3406  145.5554  160.5776 C.3     1  UNL1        0.1886
     27 H         141.4534  146.0918  158.9544 H       1  UNL1        0.2106
@<TRIPOS>BOND
     1    25    26    1
     2    18    26    1
     3    18    16    1
     4    16     1    1
     5     1     2    2
     6     2     3    1
     7     3     4    2
     8     4     5    1
     9     5     6    2
    10     6     7    1
    11     7    10    1
    12    10    11   ar
    13    11    12   ar
    14    12    13   ar
    15    13    14   ar
    16    14    15   ar
    17     7     8    2
    18     8     9    1
    19    18    19    1
    20    19    20   ar
    21    20    21   ar
    22    21    22   ar
    23    22    23   ar
    24    23    24   ar
    25     9     1    1
    26    24    19   ar
    27     9     5    1
    28    15    10   ar
    29    25    27    1
    30    16    17    1
@<TRIPOS>MOLECULE
*****
 27 30 0 0 0
SMALL
GASTEIGER

@<TRIPOS>ATOM
      1 C         137.8349  141.7582  163.7041 C.2     1  UNL1        0.3179
      2 N         137.3682  142.8938  162.8424 N.2     1  UNL1        0.0095
      3 C         137.8620  144.2858  163.1039 C.2     1  UNL1        0.4717
      4 N         138.8225  144.5422  164.2271 N.2     1  UNL1        0.0158
      5 C         139.2892  143.4067  165.0888 C.2     1  UNL1        0.3712
      6 N         140.2255  143.3540  166.2596 N.2     1  UNL1       -0.0378
      7 C         140.3103  141.9295  166.7216 C.2     1  UNL1        0.1900
      8 C         139.4265  141.1017  165.8365 C.2     1  UNL1        0.0447
      9 C         138.7954  142.0147  164.8273 C.3     1  UNL1        0.2425
     10 C         141.1343  141.4219  167.8677 C.ar    1  UNL1        0.0427
     11 C         142.3535  142.1771  168.3073 C.ar    1  UNL1        0.0037
     12 C         143.1774  141.6695  169.4533 C.ar    1  UNL1        0.0001
     13 C         142.7822  140.4067  170.1597 C.ar    1  UNL1        0.0000
     14 C         141.5631  139.6515  169.7202 C.ar    1  UNL1        0.0001
     15 C         140.7391  140.1591  168.5742 C.ar    1  UNL1        0.0037
     16 N         137.3411  140.3662  163.4426 N.pl3   1  UNL1       -0.2192
     17 H         136.4796  140.0710  163.8169 H       1  UNL1        0.2922
     18 CA        138.1597  139.4238  162.6108 C.3     1  UNL1        0.2087
     19 C         139.4749  138.9185  163.1253 C.ar    1  UNL1        0.0222
     20 C         140.7547  139.5433  162.6543 C.ar    1  UNL1       -0.0004
     21 C         142.0699  139.0380  163.1688 C.ar    1  UNL1       -0.0002
     22 C         142.1054  137.9077  164.1543 C.ar    1  UNL1       -0.0000
     23 C         140.8258  137.2828  164.6253 C.ar    1  UNL1       -0.0002
     24 C         139.5105  137.7882  164.1108 C.ar    1  UNL1       -0.0004
     25 O         136.4946  139.6844  160.6336 O.3     1  UNL1       -0.3780
     26 C         137.6631  138.9869  161.2645 C.3     1  UNL1        0.1886
     27 H         136.3044  139.2817  159.7719 H       1  UNL1        0.2106
@<TRIPOS>BOND
     1    25    26    1
     2    18    26    1
     3    18    16    1
     4    16     1    1
     5     1     2    2
     6     2     3    1
     7     3     4    2
     8     4     5    1
     9     5     6    2
    10     6     7    1
    11     7    10    1
    12    10    11   ar
    13    11    12   ar
    14    12    13   ar
    15    13    14   ar
    16    14    15   ar
    17     7     8    2
    18     8     9    1
    19    18    19    1
    20    19    20   ar
    21    20    21   ar
    22    21    22   ar
    23    22    23   ar
    24    23    24   ar
    25     9     1    1
    26    24    19   ar
    27     9     5    1
    28    15    10   ar
    29    25    27    1
    30    16    17    1
@<TRIPOS>MOLECULE
*****
 27 30 0 0 0
SMALL
GASTEIGER

@<TRIPOS>ATOM
      1 C         142.7721  144.3097  163.0666 C.2     1  UNL1        0.3179
      2 N         143.9196  144.0817  162.1278 N.2     1  UNL1        0.0095
      3 C         144.8447  142.9207  162.3423 C.2     1  UNL1        0.4717
      4 N         144.6224  141.9876  163.4955 N.2     1  UNL1        0.0158
      5 C         143.4749  142.2155  164.4342 C.2     1  UNL1        0.3712
      6 N         143.0086  141.4696  165.6492 N.2     1  UNL1       -0.0378
      7 C         141.7952  142.1696  166.1856 C.2     1  UNL1        0.1900
      8 C         141.5116  143.3482  165.3022 C.2     1  UNL1        0.0447
      9 C         142.5497  143.3766  164.2198 C.3     1  UNL1        0.2425
     10 C         141.0043  141.7624  167.3934 C.ar    1  UNL1        0.0427
     11 C         140.3163  140.4299  167.4252 C.ar    1  UNL1        0.0037
     12 C         139.5254  140.0228  168.6329 C.ar    1  UNL1        0.0001
     13 C         139.4227  140.9482  169.8090 C.ar    1  UNL1        0.0000
     14 C         140.1108  142.2807  169.7773 C.ar    1  UNL1        0.0001
     15 C         140.9016  142.6878  168.5695 C.ar    1  UNL1        0.0037
     16 N         141.8468  145.4708  162.8521 N.pl3   1  UNL1       -0.2192
     17 H         142.1245  146.3771  163.1182 H       1  UNL1        0.2922
     18 CA        140.4987  145.2509  162.2324 C.3     1  UNL1        0.2087
     19 C         139.5107  144.3347  162.8914 C.ar    1  UNL1        0.0222
     20 C         139.2694  142.9642  162.3314 C.ar    1  UNL1       -0.0004
     21 C         138.2814  142.0479  162.9904 C.ar    1  UNL1       -0.0002
     22 C         137.5346  142.5022  164.2094 C.ar    1  UNL1       -0.0000
     23 C         137.7758  143.8726  164.7694 C.ar    1  UNL1       -0.0002
     24 C         138.7639  144.7889  164.1104 C.ar    1  UNL1       -0.0004
     25 O         138.9820  146.9020  160.9194 O.3     1  UNL1       -0.3780
     26 C         140.1385  145.9473  160.9535 C.3     1  UNL1        0.1886
     27 H         138.8863  147.2620  160.0238 H       1  UNL1        0.2106
@<TRIPOS>BOND
     1    25    26    1
     2    18    26    1
     3    18    16    1
     4    16     1    1
     5     1     2    2
     6     2     3    1
     7     3     4    2
     8     4     5    1
     9     5     6    2
    10     6     7    1
    11     7    10    1
    12    10    11   ar
    13    11    12   ar
    14    12    13   ar
    15    13    14   ar
    16    14    15   ar
    17     7     8    2
    18     8     9    1
    19    18    19    1
    20    19    20   ar
    21    20    21   ar
    22    21    22   ar
    23    22    23   ar
    24    23    24   ar
    25     9     1    1
    26    24    19   ar
    27     9     5    1
    28    15    10   ar
    29    25    27    1
    30    16    17    1
@<TRIPOS>MOLECULE
*****
 27 30 0 0 0
SMALL
GASTEIGER

@<TRIPOS>ATOM
      1 C         143.2788  139.6409  163.1470 C.2     1  UNL1        0.3179
      2 N         144.1074  139.9299  161.9305 N.2     1  UNL1        0.0095
      3 C         144.9013  141.1998  161.8482 C.2     1  UNL1        0.4717
      4 N         144.8666  142.1809  162.9824 N.2     1  UNL1        0.0158
      5 C         144.0380  141.8919  164.1989 C.2     1  UNL1        0.3712
      6 N         143.8093  142.6644  165.4642 N.2     1  UNL1       -0.0378
      7 C         142.8740  141.8718  166.3285 C.2     1  UNL1        0.1900
      8 C         142.5247  140.6095  165.5974 C.2     1  UNL1        0.0447
      9 C         143.2441  140.6220  164.2812 C.3     1  UNL1        0.2425
     10 C         142.3756  142.2714  167.6857 C.ar    1  UNL1        0.0427
     11 C         140.9170  142.5504  167.8969 C.ar    1  UNL1        0.0037
     12 C         140.4186  142.9500  169.2540 C.ar    1  UNL1        0.0001
     13 C         141.3788  143.0706  170.4001 C.ar    1  UNL1        0.0000
     14 C         142.8374  142.7915  170.1890 C.ar    1  UNL1        0.0001
     15 C         143.3358  142.3920  168.8318 C.ar    1  UNL1        0.0037
     16 N         142.4848  138.3709  163.2294 N.pl3   1  UNL1       -0.2192
     17 H         142.9217  137.5345  163.5102 H       1  UNL1        0.2922
     18 CA        141.0252  138.3752  162.8839 C.3     1  UNL1        0.2087
     19 C         140.0036  138.6512  163.9470 C.ar    1  UNL1        0.0222
     20 C         139.5584  137.5502  164.8633 C.ar    1  UNL1       -0.0004
     21 C         138.5368  137.8262  165.9264 C.ar    1  UNL1       -0.0002
     22 C         137.9605  139.2033  166.0732 C.ar    1  UNL1       -0.0000
     23 C         138.4056  140.3043  165.1570 C.ar    1  UNL1       -0.0002
     24 C         139.4272  140.0283  164.0938 C.ar    1  UNL1       -0.0004
     25 O         139.2069  137.5810  161.2066 O.3     1  UNL1       -0.3780
     26 C         140.5871  138.1035  161.4752 C.3     1  UNL1        0.1886
     27 H         139.0868  137.4610  160.2516 H       1  UNL1        0.2106
@<TRIPOS>BOND
     1    25    26    1
     2    18    26    1
     3    18    16    1
     4    16     1    1
     5     1     2    2
     6     2     3    1
     7     3     4    2
     8     4     5    1
     9     5     6    2
    10     6     7    1
    11     7    10    1
    12    10    11   ar
    13    11    12   ar
    14    12    13   ar
    15    13    14   ar
    16    14    15   ar
    17     7     8    2
    18     8     9    1
    19    18    19    1
    20    19    20   ar
    21    20    21   ar
    22    21    22   ar
    23    22    23   ar
    24    23    24   ar
    25     9     1    1
    26    24    19   ar
    27     9     5    1
    28    15    10   ar
    29    25    27    1
    30    16    17    1
@<TRIPOS>MOLECULE
*****
 27 30 0 0 0
SMALL
GASTEIGER

@<TRIPOS>ATOM
      1 C         141.0880  138.5338  163.5792 C.2     1  UNL1        0.3179
      2 N         139.9675  138.1548  162.6569 N.2     1  UNL1        0.0095
      3 C         138.5940  138.7168  162.8750 C.2     1  UNL1        0.4717
      4 N         138.3410  139.6578  164.0154 N.2     1  UNL1        0.0158
      5 C         139.4615  140.0368  164.9377 C.2     1  UNL1        0.3712
      6 N         139.5135  140.9352  166.1377 N.2     1  UNL1       -0.0378
      7 C         140.9191  140.9285  166.6613 C.2     1  UNL1        0.1900
      8 C         141.7359  140.0259  165.7849 C.2     1  UNL1        0.0447
      9 C         140.8350  139.4748  164.7196 C.3     1  UNL1        0.2425
     10 C         141.4200  141.6906  167.8523 C.ar    1  UNL1        0.0427
     11 C         140.4889  142.5843  168.6166 C.ar    1  UNL1        0.0037
     12 C         140.9898  143.3464  169.8076 C.ar    1  UNL1        0.0001
     13 C         142.4218  143.2147  170.2342 C.ar    1  UNL1        0.0000
     14 C         143.3530  142.3210  169.4698 C.ar    1  UNL1        0.0001
     15 C         142.8521  141.5589  168.2789 C.ar    1  UNL1        0.0037
     16 N         142.4616  137.9718  163.3611 N.pl3   1  UNL1       -0.2192
     17 H         142.7272  137.1345  163.8057 H       1  UNL1        0.2922
     18 CA        143.4305  138.6856  162.4657 C.3     1  UNL1        0.2087
     19 C         143.8951  140.0685  162.8144 C.ar    1  UNL1        0.0222
     20 C         145.0571  140.2572  163.7441 C.ar    1  UNL1       -0.0004
     21 C         145.5217  141.6402  164.0928 C.ar    1  UNL1       -0.0002
     22 C         144.8243  142.8344  163.5119 C.ar    1  UNL1       -0.0000
     23 C         143.6623  142.6457  162.5823 C.ar    1  UNL1       -0.0002
     24 C         143.1977  141.2627  162.2335 C.ar    1  UNL1       -0.0004
     25 O         143.1400  136.9129  160.5887 O.3     1  UNL1       -0.3780
     26 C         143.9348  138.0163  161.2216 C.3     1  UNL1        0.1886
     27 H         143.6035  136.5923  159.7992 H       1  UNL1        0.2106
@<TRIPOS>BOND
     1    25    26    1
     2    18    26    1
     3    18    16    1
     4    16     1    1
     5     1     2    2
     6     2     3    1
     7     3     4    2
     8     4     5    1
     9     5     6    2
    10     6     7    1
    11     7    10    1
    12    10    11   ar
    13    11    12   ar
    14    12    13   ar
    15    13    14   ar
    16    14    15   ar
    17     7     8    2
    18     8     9    1
    19    18    19    1
    20    19    20   ar
    21    20    21   ar
    22    21    22   ar
    23    22    23   ar
    24    23    24   ar
    25     9     1    1
    26    24    19   ar
    27     9     5    1
    28    15    10   ar
    29    25    27    1
    30    16    17    1
@<TRIPOS>MOLECULE
*****
 27 30 0 0 0
SMALL
GASTEIGER

@<TRIPOS>ATOM
      1 C         141.7252  140.2665  162.4662 C.2     1  UNL1        0.3179
      2 N         142.6471  139.4823  161.5803 N.2     1  UNL1        0.0095
      3 C         143.9879  139.0461  162.0920 C.2     1  UNL1        0.4717
      4 N         144.4068  139.3940  163.4896 N.2     1  UNL1        0.0158
      5 C         143.4849  140.1782  164.3756 C.2     1  UNL1        0.3712
      6 N         143.6230  140.6651  165.7876 N.2     1  UNL1       -0.0378
      7 C         142.3675  141.4023  166.1487 C.2     1  UNL1        0.1900
      8 C         141.4535  141.3710  164.9597 C.2     1  UNL1        0.0447
      9 C         142.1441  140.6145  163.8639 C.3     1  UNL1        0.2425
     10 C         142.0771  142.0560  167.4672 C.ar    1  UNL1        0.0427
     11 C         143.1485  142.1431  168.5133 C.ar    1  UNL1        0.0037
     12 C         142.8580  142.7967  169.8317 C.ar    1  UNL1        0.0001
     13 C         141.4961  143.3633  170.1040 C.ar    1  UNL1        0.0000
     14 C         140.4247  143.2763  169.0579 C.ar    1  UNL1        0.0001
     15 C         140.7151  142.6226  167.7395 C.ar    1  UNL1        0.0037
     16 N         140.3843  140.7029  161.9546 N.pl3   1  UNL1       -0.2192
     17 H         140.2911  141.5675  161.4930 H       1  UNL1        0.2922
     18 CA        139.1856  139.8218  162.1462 C.3     1  UNL1        0.2087
     19 C         138.8679  139.2726  163.5054 C.ar    1  UNL1        0.0222
     20 C         138.2844  140.1676  164.5583 C.ar    1  UNL1       -0.0004
     21 C         137.9668  139.6184  165.9175 C.ar    1  UNL1       -0.0002
     22 C         138.2327  138.1742  166.2238 C.ar    1  UNL1       -0.0000
     23 C         138.8162  137.2793  165.1710 C.ar    1  UNL1       -0.0002
     24 C         139.1338  137.8285  163.8117 C.ar    1  UNL1       -0.0004
     25 O         136.9148  138.9748  161.2100 O.3     1  UNL1       -0.3780
     26 C         138.3044  139.4900  160.9784 C.3     1  UNL1        0.1886
     27 H         136.4840  138.8115  160.3564 H       1  UNL1        0.2106
@<TRIPOS>BOND
     1    25    26    1
     2    18    26    1
     3    18    16    1
     4    16     1    1
     5     1     2    2
     6     2     3    1
     7     3     4    2
     8     4     5    1
     9     5     6    2
    10     6     7    1
    11     7    10    1
    12    10    11   ar
    13    11    12   ar
    14    12    13   ar
    15    13    14   ar
    16    14    15   ar
    17     7     8    2
    18     8     9    1
    19    18    19    1
    20    19    20   ar
    21    20    21   ar
    22    21    22   ar
    23    22    23   ar
    24    23    24   ar
    25     9     1    1
    26    24    19   ar
    27     9     5    1
    28    15    10   ar
    29    25    27    1
    30    16    17    1
@<TRIPOS>MOLECULE
*****
 27 30 0 0 0
SMALL
GASTEIGER

@<TRIPOS>ATOM
      1 C         141.7209  138.1069  164.2541 C.2     1  UNL1        0.3179
      2 N         142.4788  137.8224  162.9913 N.2     1  UNL1        0.0095
      3 C         143.5961  138.7287  162.5669 C.2     1  UNL1        0.4717
      4 N         143.9557  139.9194  163.4052 N.2     1  UNL1        0.0158
      5 C         143.1978  140.2039  164.6680 C.2     1  UNL1        0.3712
      6 N         143.3243  141.2940  165.6906 N.2     1  UNL1       -0.0378
      7 C         142.2851  141.0614  166.7470 C.2     1  UNL1        0.1900
      8 C         141.5164  139.8277  166.3774 C.2     1  UNL1        0.0447
      9 C         142.0804  139.2977  165.0924 C.3     1  UNL1        0.2425
     10 C         142.0552  141.9132  167.9602 C.ar    1  UNL1        0.0427
     11 C         143.1449  142.0794  168.9775 C.ar    1  UNL1        0.0037
     12 C         142.9148  142.9311  170.1905 C.ar    1  UNL1        0.0001
     13 C         141.5951  143.6167  170.3863 C.ar    1  UNL1        0.0000
     14 C         140.5054  143.4505  169.3691 C.ar    1  UNL1        0.0001
     15 C         140.7354  142.5988  168.1560 C.ar    1  UNL1        0.0037
     16 N         140.6035  137.2006  164.6785 N.pl3   1  UNL1       -0.2192
     17 H         140.7874  136.2556  164.8845 H       1  UNL1        0.2922
     18 CA        139.2060  137.7343  164.7892 C.3     1  UNL1        0.2087
     19 C         138.6628  138.6407  163.7247 C.ar    1  UNL1        0.0222
     20 C         138.3609  140.0751  164.0432 C.ar    1  UNL1       -0.0004
     21 C         137.8177  140.9815  162.9787 C.ar    1  UNL1       -0.0002
     22 C         137.5763  140.4535  161.5956 C.ar    1  UNL1       -0.0000
     23 C         137.8781  139.0192  161.2770 C.ar    1  UNL1       -0.0002
     24 C         138.4214  138.1127  162.3416 C.ar    1  UNL1       -0.0004
     25 O         137.4963  138.3990  166.6291 O.3     1  UNL1       -0.3780
     26 C         138.3517  137.3614  165.9645 C.3     1  UNL1        0.1886
     27 H         137.0116  137.9950  167.3658 H       1  UNL1        0.2106
@<TRIPOS>BOND
     1    25    26    1
     2    18    26    1
     3    18    16    1
     4    16     1    1
     5     1     2    2
     6     2     3    1
     7     3     4    2
     8     4     5    1
     9     5     6    2
    10     6     7    1
    11     7    10    1
    12    10    11   ar
    13    11    12   ar
    14    12    13   ar
    15    13    14   ar
    16    14    15   ar
    17     7     8    2
    18     8     9    1
    19    18    19    1
    20    19    20   ar
    21    20    21   ar
    22    21    22   ar
    23    22    23   ar
    24    23    24   ar
    25     9     1    1
    26    24    19   ar
    27     9     5    1
    28    15    10   ar
    29    25    27    1
    30    16    17    1
@<TRIPOS>MOLECULE
*****
 27 30 0 0 0
SMALL
GASTEIGER

@<TRIPOS>ATOM
      1 C         139.6743  140.1662  163.0636 C.2     1  UNL1        0.3179
      2 N         138.7437  140.5823  161.9633 N.2     1  UNL1        0.0095
      3 C         138.0406  141.9053  162.0358 C.2     1  UNL1        0.4717
      4 N         138.2681  142.8122  163.2087 N.2     1  UNL1        0.0158
      5 C         139.1987  142.3961  164.3091 C.2     1  UNL1        0.3712
      6 N         139.6173  143.0745  165.5798 N.2     1  UNL1       -0.0378
      7 C         140.5792  142.1707  166.2926 C.2     1  UNL1        0.1900
      8 C         140.7550  140.9338  165.4624 C.2     1  UNL1        0.0447
      9 C         139.9018  141.0731  164.2366 C.3     1  UNL1        0.2425
     10 C         141.2478  142.4541  167.6051 C.ar    1  UNL1        0.0427
     11 C         140.4857  143.1342  168.7036 C.ar    1  UNL1        0.0037
     12 C         141.1544  143.4176  170.0160 C.ar    1  UNL1        0.0001
     13 C         142.5850  143.0209  170.2300 C.ar    1  UNL1        0.0000
     14 C         143.3471  142.3408  169.1316 C.ar    1  UNL1        0.0001
     15 C         142.6784  142.0574  167.8191 C.ar    1  UNL1        0.0037
     16 N         140.3775  138.8432  162.9911 N.pl3   1  UNL1       -0.2192
     17 H         139.9754  138.0484  163.4106 H       1  UNL1        0.2922
     18 CA        141.6932  138.7311  162.2796 C.3     1  UNL1        0.2087
     19 C         142.9151  139.3836  162.8552 C.ar    1  UNL1        0.0222
     20 C         143.5215  140.5740  162.1731 C.ar    1  UNL1       -0.0004
     21 C         144.7434  141.2264  162.7487 C.ar    1  UNL1       -0.0002
     22 C         145.3588  140.6885  164.0064 C.ar    1  UNL1       -0.0000
     23 C         144.7525  139.4982  164.6885 C.ar    1  UNL1       -0.0002
     24 C         143.5305  138.8457  164.1129 C.ar    1  UNL1       -0.0004
     25 O         142.9941  137.1229  160.7076 O.3     1  UNL1       -0.3780
     26 C         141.7871  137.9666  160.9924 C.3     1  UNL1        0.1886
     27 H         142.8955  136.6998  159.8403 H       1  UNL1        0.2106
@<TRIPOS>BOND
     1    25    26    1
     2    18    26    1
     3    18    16    1
     4    16     1    1
     5     1     2    2
     6     2     3    1
     7     3     4    2
     8     4     5    1
     9     5     6    2
    10     6     7    1
    11     7    10    1
    12    10    11   ar
    13    11    12   ar
    14    12    13   ar
    15    13    14   ar
    16    14    15   ar
    17     7     8    2
    18     8     9    1
    19    18    19    1
    20    19    20   ar
    21    20    21   ar
    22    21    22   ar
    23    22    23   ar
    24    23    24   ar
    25     9     1    1
    26    24    19   ar
    27     9     5    1
    28    15    10   ar
    29    25    27    1
    30    16    17    1
