@<TRIPOS>MOLECULE
*****
 29 32 0 0 0
SMALL
GASTEIGER

@<TRIPOS>ATOM
      1 S         141.4075  138.7685  161.7591 S.O2    1  UNL1        0.0277
      2 O         140.7747  137.4267  161.9805 O.2     1  UNL1       -0.1642
      3 O         142.0403  140.1104  161.5378 O.2     1  UNL1       -0.1642
      4 C         141.5269  138.9569  163.2425 C.ar    1  UNL1        0.1133
      5 C         142.8262  138.6658  163.9333 C.ar    1  UNL1        0.0186
      6 C         142.9456  138.8541  165.4166 C.ar    1  UNL1        0.0002
      7 C         141.7658  139.3336  166.2092 C.ar    1  UNL1        0.0151
      8 C         140.4665  139.6247  165.5184 C.ar    1  UNL1        0.1358
      9 C         140.3471  139.4363  164.0350 C.ar    1  UNL1        0.0553
     10 O         139.4828  140.0813  166.5546 O.3     1  UNL1       -0.4777
     11 C         140.1741  140.0724  167.8858 C.3     1  UNL1        0.1855
     12 C         139.7010  140.4254  169.2647 C.3     1  UNL1        0.1130
     13 N         140.6389  140.3163  170.4302 N.3     1  UNL1       -0.2944
     14 C         142.0499  139.8542  170.2167 C.3     1  UNL1        0.0691
     15 C         142.5230  139.5012  168.8378 C.3     1  UNL1        0.0252
     16 C         141.5850  139.6103  167.6723 C.3     1  UNL1        0.0681
     17 H         140.2130  139.6664  171.0910 H       1  UNL1        0.1234
     18 C         139.9107  138.7983  158.0838 C.ar    1  UNL1        0.1431
     19 C         141.0492  138.2035  157.3092 C.ar    1  UNL1        0.0738
     20 C         142.3072  137.7970  158.0180 C.ar    1  UNL1        0.1427
     21 C         142.4266  137.9854  159.5012 C.ar    1  UNL1        0.0558
     22 C         141.2881  138.5802  160.2758 C.ar    1  UNL1        0.1163
     23 C         140.0301  138.9867  159.5671 C.ar    1  UNL1        0.0558
     24 C         138.2802  140.6548  157.2804 C.3     1  UNL1        0.2525
     25 O         138.6527  139.2048  157.3750 O.3     1  UNL1       -0.4713
     26 O         143.4457  137.2022  157.2434 O.3     1  UNL1       -0.4790
     27 C         143.2399  135.9421  156.4561 C.3     1  UNL1        0.1661
     28 C         142.9914  136.0129  154.9786 C.3     1  UNL1        0.0472
     29 C         143.2827  134.6111  157.1465 C.3     1  UNL1        0.0472
@<TRIPOS>BOND
     1    24    25    1
     2    25    18    1
     3    18    19   ar
     4    19    20   ar
     5    20    26    1
     6    26    27    1
     7    27    28    1
     8    27    29    1
     9    20    21   ar
    10    21    22   ar
    11    22     1    1
    12     1     2    2
    13     1     3    2
    14     1     4    1
    15     4     5   ar
    16     5     6   ar
    17     6     7   ar
    18     7     8   ar
    19     8     9   ar
    20     8    10    1
    21    10    11    1
    22    11    12    1
    23    12    13    1
    24    13    14    1
    25    14    15    1
    26    16    15    1
    27    22    23   ar
    28    23    18   ar
    29     9     4   ar
    30    16    11    1
    31    16     7    1
    32    13    17    1
@<TRIPOS>MOLECULE
*****
 29 32 0 0 0
SMALL
GASTEIGER

@<TRIPOS>ATOM
      1 S         142.8037  139.2504  161.5491 S.O2    1  UNL1        0.0277
      2 O         144.2554  139.5893  161.7159 O.2     1  UNL1       -0.1642
      3 O         141.3520  138.9114  161.3823 O.2     1  UNL1       -0.1642
      4 C         142.6185  139.3113  163.0364 C.ar    1  UNL1        0.1133
      5 C         143.7817  139.0549  163.9481 C.ar    1  UNL1        0.0186
      6 C         143.5966  139.1158  165.4354 C.ar    1  UNL1        0.0002
      7 C         142.2482  139.4332  166.0110 C.ar    1  UNL1        0.0151
      8 C         141.0851  139.6896  165.0992 C.ar    1  UNL1        0.1358
      9 C         141.2702  139.6286  163.6119 C.ar    1  UNL1        0.0553
     10 O         139.8836  139.9765  165.9502 O.3     1  UNL1       -0.4777
     11 C         140.3042  139.8974  167.3879 C.3     1  UNL1        0.1855
     12 C         139.5453  140.0878  168.6676 C.3     1  UNL1        0.1130
     13 N         140.2478  139.9424  169.9849 N.3     1  UNL1       -0.2944
     14 C         141.7093  139.6066  170.0224 C.3     1  UNL1        0.0691
     15 C         142.4682  139.4162  168.7427 C.3     1  UNL1        0.0252
     16 C         141.7657  139.5616  167.4254 C.3     1  UNL1        0.0681
     17 H         139.7632  139.2056  170.4973 H       1  UNL1        0.1234
     18 C         143.8324  140.2671  157.8535 C.ar    1  UNL1        0.1431
     19 C         143.3591  139.0675  157.0873 C.ar    1  UNL1        0.0738
     20 C         142.7007  137.9289  157.8084 C.ar    1  UNL1        0.1427
     21 C         142.5156  137.9899  159.2956 C.ar    1  UNL1        0.0558
     22 C         142.9888  139.1894  160.0618 C.ar    1  UNL1        0.1163
     23 C         143.6472  140.3280  159.3408 C.ar    1  UNL1        0.0558
     24 C         145.1450  142.5085  157.9109 C.3     1  UNL1        0.2525
     25 O         144.4909  141.4058  157.1324 O.3     1  UNL1       -0.4713
     26 O         142.2274  136.7294  157.0422 O.3     1  UNL1       -0.4790
     27 C         143.2065  135.6733  156.6224 C.3     1  UNL1        0.1661
     28 C         143.3353  134.4099  157.4207 C.3     1  UNL1        0.0472
     29 C         144.0567  135.8807  155.4042 C.3     1  UNL1        0.0472
@<TRIPOS>BOND
     1    24    25    1
     2    25    18    1
     3    18    19   ar
     4    19    20   ar
     5    20    26    1
     6    26    27    1
     7    27    28    1
     8    27    29    1
     9    20    21   ar
    10    21    22   ar
    11    22     1    1
    12     1     2    2
    13     1     3    2
    14     1     4    1
    15     4     5   ar
    16     5     6   ar
    17     6     7   ar
    18     7     8   ar
    19     8     9   ar
    20     8    10    1
    21    10    11    1
    22    11    12    1
    23    12    13    1
    24    13    14    1
    25    14    15    1
    26    16    15    1
    27    22    23   ar
    28    23    18   ar
    29     9     4   ar
    30    16    11    1
    31    16     7    1
    32    13    17    1
@<TRIPOS>MOLECULE
*****
 29 32 0 0 0
SMALL
GASTEIGER

@<TRIPOS>ATOM
      1 S         140.2962  139.4538  162.9739 S.O2    1  UNL1        0.0277
      2 O         139.1509  138.4983  163.1334 O.2     1  UNL1       -0.1642
      3 O         141.4414  140.4094  162.8144 O.2     1  UNL1       -0.1642
      4 C         140.3443  139.6443  164.4610 C.ar    1  UNL1        0.1133
      5 C         139.0704  139.7153  165.2497 C.ar    1  UNL1        0.0186
      6 C         139.1186  139.9058  166.7368 C.ar    1  UNL1        0.0002
      7 C         140.4407  140.0251  167.4352 C.ar    1  UNL1        0.0151
      8 C         141.7146  139.9541  166.6465 C.ar    1  UNL1        0.1358
      9 C         141.6664  139.7636  165.1594 C.ar    1  UNL1        0.0553
     10 O         142.8606  140.1022  167.6028 O.3     1  UNL1       -0.4777
     11 C         142.2950  140.2649  168.9826 C.3     1  UNL1        0.1855
     12 C         142.9487  140.4502  170.3199 C.3     1  UNL1        0.1130
     13 N         142.1066  140.5878  171.5535 N.3     1  UNL1       -0.2944
     14 C         140.6110  140.5402  171.4499 C.3     1  UNL1        0.0691
     15 C         139.9573  140.3549  170.1126 C.3     1  UNL1        0.0252
     16 C         140.7994  140.2172  168.8790 C.3     1  UNL1        0.0681
     17 H         142.3442  141.4865  171.9734 H       1  UNL1        0.1234
     18 C         141.3608  138.4467  159.2859 C.ar    1  UNL1        0.1431
     19 C         140.1517  138.8826  158.5127 C.ar    1  UNL1        0.0738
     20 C         138.9906  139.5089  159.2266 C.ar    1  UNL1        0.1427
     21 C         139.0388  139.6993  160.7136 C.ar    1  UNL1        0.0558
     22 C         140.2480  139.2634  161.4868 C.ar    1  UNL1        0.1163
     23 C         141.4090  138.6371  160.7730 C.ar    1  UNL1        0.0558
     24 C         142.3482  137.2882  157.1803 C.3     1  UNL1        0.2525
     25 O         142.5220  137.8203  158.5719 O.3     1  UNL1       -0.4713
     26 O         137.7814  139.9448  158.4535 O.3     1  UNL1       -0.4790
     27 C         137.7713  141.2777  157.7655 C.3     1  UNL1        0.1661
     28 C         136.8807  141.5031  156.5797 C.3     1  UNL1        0.0472
     29 C         138.6519  142.3853  158.2634 C.3     1  UNL1        0.0472
@<TRIPOS>BOND
     1    24    25    1
     2    25    18    1
     3    18    19   ar
     4    19    20   ar
     5    20    26    1
     6    26    27    1
     7    27    28    1
     8    27    29    1
     9    20    21   ar
    10    21    22   ar
    11    22     1    1
    12     1     2    2
    13     1     3    2
    14     1     4    1
    15     4     5   ar
    16     5     6   ar
    17     6     7   ar
    18     7     8   ar
    19     8     9   ar
    20     8    10    1
    21    10    11    1
    22    11    12    1
    23    12    13    1
    24    13    14    1
    25    14    15    1
    26    16    15    1
    27    22    23   ar
    28    23    18   ar
    29     9     4   ar
    30    16    11    1
    31    16     7    1
    32    13    17    1
@<TRIPOS>MOLECULE
*****
 29 32 0 0 0
SMALL
GASTEIGER

@<TRIPOS>ATOM
      1 S         139.9643  142.3483  164.1340 S.O2    1  UNL1        0.0277
      2 O         140.8945  143.4666  164.5002 O.2     1  UNL1       -0.1642
      3 O         139.0340  141.2300  163.7678 O.2     1  UNL1       -0.1642
      4 C         139.9856  142.7990  162.7034 C.ar    1  UNL1        0.1133
      5 C         138.9197  142.3357  161.7552 C.ar    1  UNL1        0.0186
      6 C         138.9411  142.7864  160.3246 C.ar    1  UNL1        0.0002
      7 C         140.0283  143.7003  159.8423 C.ar    1  UNL1        0.0151
      8 C         141.0942  144.1636  160.7906 C.ar    1  UNL1        0.1358
      9 C         141.0728  143.7129  162.2212 C.ar    1  UNL1        0.0553
     10 O         142.0323  145.0560  160.0333 O.3     1  UNL1       -0.4777
     11 C         141.5462  145.1444  158.6170 C.3     1  UNL1        0.1855
     12 C         142.0713  145.8795  157.4196 C.3     1  UNL1        0.1130
     13 N         141.3579  145.7767  156.1042 N.3     1  UNL1       -0.2944
     14 C         140.1193  144.9388  155.9862 C.3     1  UNL1        0.0691
     15 C         139.5942  144.2037  157.1835 C.3     1  UNL1        0.0252
     16 C         140.3076  144.3065  158.4990 C.3     1  UNL1        0.0681
     17 H         142.0300  145.4049  155.4330 H       1  UNL1        0.1234
     18 C         139.1888  140.1948  167.3760 C.ar    1  UNL1        0.1431
     19 C         139.9002  140.9963  168.4256 C.ar    1  UNL1        0.0738
     20 C         140.6330  142.2484  168.0445 C.ar    1  UNL1        0.1427
     21 C         140.6543  142.6991  166.6141 C.ar    1  UNL1        0.0558
     22 C         139.9429  141.8976  165.5646 C.ar    1  UNL1        0.1163
     23 C         139.2101  140.6455  165.9455 C.ar    1  UNL1        0.0558
     24 C         137.7701  138.1249  166.7030 C.3     1  UNL1        0.2525
     25 O         138.4559  138.9426  167.7570 O.3     1  UNL1       -0.4713
     26 O         141.3444  143.0499  169.0941 O.3     1  UNL1       -0.4790
     27 C         142.3254  142.3818  170.0113 C.3     1  UNL1        0.1661
     28 C         143.7754  142.3089  169.6342 C.3     1  UNL1        0.0472
     29 C         141.8563  141.7865  171.3058 C.3     1  UNL1        0.0472
@<TRIPOS>BOND
     1    24    25    1
     2    25    18    1
     3    18    19   ar
     4    19    20   ar
     5    20    26    1
     6    26    27    1
     7    27    28    1
     8    27    29    1
     9    20    21   ar
    10    21    22   ar
    11    22     1    1
    12     1     2    2
    13     1     3    2
    14     1     4    1
    15     4     5   ar
    16     5     6   ar
    17     6     7   ar
    18     7     8   ar
    19     8     9   ar
    20     8    10    1
    21    10    11    1
    22    11    12    1
    23    12    13    1
    24    13    14    1
    25    14    15    1
    26    16    15    1
    27    22    23   ar
    28    23    18   ar
    29     9     4   ar
    30    16    11    1
    31    16     7    1
    32    13    17    1
@<TRIPOS>MOLECULE
*****
 29 32 0 0 0
SMALL
GASTEIGER

@<TRIPOS>ATOM
      1 S         140.3913  139.3885  162.9718 S.O2    1  UNL1        0.0277
      2 O         139.5072  140.5906  162.8186 O.2     1  UNL1       -0.1642
      3 O         141.2754  138.1865  163.1251 O.2     1  UNL1       -0.1642
      4 C         140.4223  139.6006  164.4565 C.ar    1  UNL1        0.1133
      5 C         139.1392  139.7263  165.2231 C.ar    1  UNL1        0.0186
      6 C         139.1702  139.9383  166.7077 C.ar    1  UNL1        0.0002
      7 C         140.4843  140.0247  167.4257 C.ar    1  UNL1        0.0151
      8 C         141.7674  139.8989  166.6591 C.ar    1  UNL1        0.1358
      9 C         141.7364  139.6869  165.1745 C.ar    1  UNL1        0.0553
     10 O         142.9026  140.0239  167.6317 O.3     1  UNL1       -0.4777
     11 C         142.3210  140.2269  168.9993 C.3     1  UNL1        0.1855
     12 C         142.9592  140.4114  170.3442 C.3     1  UNL1        0.1130
     13 N         142.1029  140.5963  171.5617 N.3     1  UNL1       -0.2944
     14 C         140.6083  140.5967  171.4344 C.3     1  UNL1        0.0691
     15 C         139.9700  140.4123  170.0896 C.3     1  UNL1        0.0252
     16 C         140.8264  140.2273  168.8721 C.3     1  UNL1        0.0681
     17 H         142.3637  141.4931  171.9717 H       1  UNL1        0.1234
     18 C         139.1453  139.4230  159.2041 C.ar    1  UNL1        0.1431
     19 C         140.2983  138.7524  158.5180 C.ar    1  UNL1        0.0738
     20 C         141.4824  138.2937  159.3166 C.ar    1  UNL1        0.1427
     21 C         141.5133  138.5058  160.8011 C.ar    1  UNL1        0.0558
     22 C         140.3603  139.1765  161.4872 C.ar    1  UNL1        0.1163
     23 C         139.1763  139.6351  160.6887 C.ar    1  UNL1        0.0558
     24 C         138.0294  141.1657  157.6331 C.3     1  UNL1        0.2525
     25 O         137.9612  139.8817  158.4055 O.3     1  UNL1       -0.4713
     26 O         142.6354  137.6231  158.6306 O.3     1  UNL1       -0.4790
     27 C         142.6456  137.4915  157.1364 C.3     1  UNL1        0.1661
     28 C         143.2466  138.5758  156.2920 C.3     1  UNL1        0.0472
     29 C         142.0548  136.2754  156.4866 C.3     1  UNL1        0.0472
@<TRIPOS>BOND
     1    24    25    1
     2    25    18    1
     3    18    19   ar
     4    19    20   ar
     5    20    26    1
     6    26    27    1
     7    27    28    1
     8    27    29    1
     9    20    21   ar
    10    21    22   ar
    11    22     1    1
    12     1     2    2
    13     1     3    2
    14     1     4    1
    15     4     5   ar
    16     5     6   ar
    17     6     7   ar
    18     7     8   ar
    19     8     9   ar
    20     8    10    1
    21    10    11    1
    22    11    12    1
    23    12    13    1
    24    13    14    1
    25    14    15    1
    26    16    15    1
    27    22    23   ar
    28    23    18   ar
    29     9     4   ar
    30    16    11    1
    31    16     7    1
    32    13    17    1
@<TRIPOS>MOLECULE
*****
 29 32 0 0 0
SMALL
GASTEIGER

@<TRIPOS>ATOM
      1 S         143.0458  139.5052  161.8813 S.O2    1  UNL1        0.0277
      2 O         142.5688  140.9229  161.7691 O.2     1  UNL1       -0.1642
      3 O         143.5229  138.0875  161.9936 O.2     1  UNL1       -0.1642
      4 C         142.9528  139.5922  163.3759 C.ar    1  UNL1        0.1133
      5 C         142.6469  138.3642  164.1811 C.ar    1  UNL1        0.0186
      6 C         142.5539  138.4513  165.6757 C.ar    1  UNL1        0.0002
      7 C         142.7668  139.7663  166.3651 C.ar    1  UNL1        0.0151
      8 C         143.0727  140.9943  165.5599 C.ar    1  UNL1        0.1358
      9 C         143.1657  140.9073  164.0653 C.ar    1  UNL1        0.0553
     10 O         143.2330  142.1437  166.5103 O.3     1  UNL1       -0.4777
     11 C         143.0262  141.6261  167.9029 C.3     1  UNL1        0.1855
     12 C         143.0631  142.3028  169.2410 C.3     1  UNL1        0.1130
     13 N         142.8117  141.5102  170.4894 N.3     1  UNL1       -0.2944
     14 C         142.5236  140.0408  170.3997 C.3     1  UNL1        0.0691
     15 C         142.4867  139.3641  169.0616 C.3     1  UNL1        0.0252
     16 C         142.7380  140.1567  167.8131 C.3     1  UNL1        0.0681
     17 H         142.0118  141.9392  170.9546 H       1  UNL1        0.1234
     18 C         143.8354  140.4606  158.1113 C.ar    1  UNL1        0.1431
     19 C         143.3249  139.2440  157.3976 C.ar    1  UNL1        0.0738
     20 C         142.7213  138.1145  158.1786 C.ar    1  UNL1        0.1427
     21 C         142.6283  138.2016  159.6731 C.ar    1  UNL1        0.0558
     22 C         143.1388  139.4181  160.3867 C.ar    1  UNL1        0.1163
     23 C         143.7424  140.5476  159.6059 C.ar    1  UNL1        0.0558
     24 C         145.7195  141.3815  156.5775 C.3     1  UNL1        0.2525
     25 O         144.4390  141.5902  157.3303 O.3     1  UNL1       -0.4713
     26 O         142.2108  136.8979  157.4650 O.3     1  UNL1       -0.4790
     27 C         143.1768  135.8996  156.8992 C.3     1  UNL1        0.1661
     28 C         143.9254  136.2119  155.6374 C.3     1  UNL1        0.0472
     29 C         143.3943  134.5888  157.5953 C.3     1  UNL1        0.0472
@<TRIPOS>BOND
     1    24    25    1
     2    25    18    1
     3    18    19   ar
     4    19    20   ar
     5    20    26    1
     6    26    27    1
     7    27    28    1
     8    27    29    1
     9    20    21   ar
    10    21    22   ar
    11    22     1    1
    12     1     2    2
    13     1     3    2
    14     1     4    1
    15     4     5   ar
    16     5     6   ar
    17     6     7   ar
    18     7     8   ar
    19     8     9   ar
    20     8    10    1
    21    10    11    1
    22    11    12    1
    23    12    13    1
    24    13    14    1
    25    14    15    1
    26    16    15    1
    27    22    23   ar
    28    23    18   ar
    29     9     4   ar
    30    16    11    1
    31    16     7    1
    32    13    17    1
@<TRIPOS>MOLECULE
*****
 29 32 0 0 0
SMALL
GASTEIGER

@<TRIPOS>ATOM
      1 S         141.9646  143.2346  162.7261 S.O2    1  UNL1        0.0277
      2 O         140.5854  143.8043  162.5736 O.2     1  UNL1       -0.1642
      3 O         143.3438  142.6648  162.8786 O.2     1  UNL1       -0.1642
      4 C         141.7128  143.0163  164.1886 C.ar    1  UNL1        0.1133
      5 C         140.3079  142.8730  164.6945 C.ar    1  UNL1        0.0186
      6 C         140.0561  142.6547  166.1571 C.ar    1  UNL1        0.0002
      7 C         141.2090  142.5797  167.1137 C.ar    1  UNL1        0.0151
      8 C         142.6138  142.7229  166.6077 C.ar    1  UNL1        0.1358
      9 C         142.8657  142.9412  165.1452 C.ar    1  UNL1        0.0553
     10 O         143.5427  142.6061  167.7797 O.3     1  UNL1       -0.4777
     11 C         142.7119  142.3907  169.0100 C.3     1  UNL1        0.1855
     12 C         143.0825  142.2072  170.4518 C.3     1  UNL1        0.1130
     13 N         142.0107  142.0075  171.4820 N.3     1  UNL1       -0.2944
     14 C         140.5684  141.9912  171.0704 C.3     1  UNL1        0.0691
     15 C         140.1978  142.1746  169.6285 C.3     1  UNL1        0.0252
     16 C         141.2696  142.3743  168.5983 C.3     1  UNL1        0.0681
     17 H         142.1138  142.7592  172.1638 H       1  UNL1        0.1234
     18 C         141.5807  144.5910  159.0163 C.ar    1  UNL1        0.1431
     19 C         142.7203  143.8895  158.3387 C.ar    1  UNL1        0.0738
     20 C         143.6080  142.9697  159.1235 C.ar    1  UNL1        0.1427
     21 C         143.3561  142.7514  160.5859 C.ar    1  UNL1        0.0558
     22 C         142.2165  143.4529  161.2636 C.ar    1  UNL1        0.1163
     23 C         141.3288  144.3726  160.4788 C.ar    1  UNL1        0.0558
     24 C         141.0727  145.9100  156.8363 C.3     1  UNL1        0.2525
     25 O         140.6929  145.5108  158.2315 O.3     1  UNL1       -0.4713
     26 O         144.7475  142.2682  158.4458 O.3     1  UNL1       -0.4790
     27 C         144.4893  141.0436  157.6189 C.3     1  UNL1        0.1661
     28 C         145.3785  140.7240  156.4540 C.3     1  UNL1        0.0472
     29 C         143.3418  140.1387  157.9570 C.3     1  UNL1        0.0472
@<TRIPOS>BOND
     1    24    25    1
     2    25    18    1
     3    18    19   ar
     4    19    20   ar
     5    20    26    1
     6    26    27    1
     7    27    28    1
     8    27    29    1
     9    20    21   ar
    10    21    22   ar
    11    22     1    1
    12     1     2    2
    13     1     3    2
    14     1     4    1
    15     4     5   ar
    16     5     6   ar
    17     6     7   ar
    18     7     8   ar
    19     8     9   ar
    20     8    10    1
    21    10    11    1
    22    11    12    1
    23    12    13    1
    24    13    14    1
    25    14    15    1
    26    16    15    1
    27    22    23   ar
    28    23    18   ar
    29     9     4   ar
    30    16    11    1
    31    16     7    1
    32    13    17    1
@<TRIPOS>MOLECULE
*****
 29 32 0 0 0
SMALL
GASTEIGER

@<TRIPOS>ATOM
      1 S         143.1309  140.7194  162.7754 S.O2    1  UNL1        0.0277
      2 O         143.8419  142.0359  162.6683 O.2     1  UNL1       -0.1642
      3 O         142.4199  139.4029  162.8825 O.2     1  UNL1       -0.1642
      4 C         142.9202  140.9525  164.2421 C.ar    1  UNL1        0.1133
      5 C         142.5084  142.3082  164.7345 C.ar    1  UNL1        0.0186
      6 C         142.2977  142.5413  166.2013 C.ar    1  UNL1        0.0002
      7 C         142.4989  141.4187  167.1756 C.ar    1  UNL1        0.0151
      8 C         142.9108  140.0630  166.6832 C.ar    1  UNL1        0.1358
      9 C         143.1215  139.8299  165.2164 C.ar    1  UNL1        0.0553
     10 O         143.0329  139.1557  167.8714 O.3     1  UNL1       -0.4777
     11 C         142.6965  139.9506  169.0982 C.3     1  UNL1        0.1855
     12 C         142.6480  139.5816  170.5512 C.3     1  UNL1        0.1130
     13 N         142.2695  140.6112  171.5742 N.3     1  UNL1       -0.2944
     14 C         141.9395  142.0098  171.1442 C.3     1  UNL1        0.0691
     15 C         141.9880  142.3788  169.6912 C.3     1  UNL1        0.0252
     16 C         142.3665  141.3492  168.6681 C.3     1  UNL1        0.0681
     17 H         143.0513  140.6801  172.2258 H       1  UNL1        0.1234
     18 C         144.0319  141.3723  158.9660 C.ar    1  UNL1        0.1431
     19 C         143.7629  140.0201  158.3752 C.ar    1  UNL1        0.0738
     20 C         143.2832  138.9009  159.2512 C.ar    1  UNL1        0.1427
     21 C         143.0725  139.1340  160.7179 C.ar    1  UNL1        0.0558
     22 C         143.3416  140.4863  161.3086 C.ar    1  UNL1        0.1163
     23 C         143.8212  141.6054  160.4327 C.ar    1  UNL1        0.0558
     24 C         145.4955  142.2156  156.9918 C.3     1  UNL1        0.2525
     25 O         144.5116  142.4916  158.0900 O.3     1  UNL1       -0.4713
     26 O         143.0141  137.5487  158.6605 O.3     1  UNL1       -0.4790
     27 C         142.4907  137.4328  157.2596 C.3     1  UNL1        0.1661
     28 C         141.0591  137.7688  156.9635 C.3     1  UNL1        0.0472
     29 C         143.3989  136.9809  156.1546 C.3     1  UNL1        0.0472
@<TRIPOS>BOND
     1    24    25    1
     2    25    18    1
     3    18    19   ar
     4    19    20   ar
     5    20    26    1
     6    26    27    1
     7    27    28    1
     8    27    29    1
     9    20    21   ar
    10    21    22   ar
    11    22     1    1
    12     1     2    2
    13     1     3    2
    14     1     4    1
    15     4     5   ar
    16     5     6   ar
    17     6     7   ar
    18     7     8   ar
    19     8     9   ar
    20     8    10    1
    21    10    11    1
    22    11    12    1
    23    12    13    1
    24    13    14    1
    25    14    15    1
    26    16    15    1
    27    22    23   ar
    28    23    18   ar
    29     9     4   ar
    30    16    11    1
    31    16     7    1
    32    13    17    1
@<TRIPOS>MOLECULE
*****
 29 32 0 0 0
SMALL
GASTEIGER

@<TRIPOS>ATOM
      1 S         143.0746  139.7708  162.0813 S.O2    1  UNL1        0.0277
      2 O         141.7909  138.9967  162.0257 O.2     1  UNL1       -0.1642
      3 O         144.3582  140.5449  162.1368 O.2     1  UNL1       -0.1642
      4 C         142.9761  139.8267  163.5770 C.ar    1  UNL1        0.1133
      5 C         142.7033  138.5755  164.3580 C.ar    1  UNL1        0.0186
      6 C         142.6049  138.6314  165.8537 C.ar    1  UNL1        0.0002
      7 C         142.7792  139.9386  166.5685 C.ar    1  UNL1        0.0151
      8 C         143.0520  141.1898  165.7875 C.ar    1  UNL1        0.1358
      9 C         143.1505  141.1339  164.2917 C.ar    1  UNL1        0.0553
     10 O         143.1780  142.3249  166.7599 O.3     1  UNL1       -0.4777
     11 C         142.9831  141.7752  168.1419 C.3     1  UNL1        0.1855
     12 C         142.9981  142.4271  169.4927 C.3     1  UNL1        0.1130
     13 N         142.7668  141.6041  170.7252 N.3     1  UNL1       -0.2944
     14 C         142.5203  140.1292  170.6069 C.3     1  UNL1        0.0691
     15 C         142.5052  139.4774  169.2561 C.3     1  UNL1        0.0252
     16 C         142.7366  140.3003  168.0236 C.3     1  UNL1        0.0681
     17 H         141.9541  142.0016  171.1964 H       1  UNL1        0.1234
     18 C         142.7655  138.4566  158.3494 C.ar    1  UNL1        0.1431
     19 C         143.3699  139.6030  157.5941 C.ar    1  UNL1        0.0738
     20 C         143.8759  140.8054  158.3347 C.ar    1  UNL1        0.1427
     21 C         143.7774  140.8613  159.8303 C.ar    1  UNL1        0.0558
     22 C         143.1730  139.7149  160.5855 C.ar    1  UNL1        0.1163
     23 C         142.6671  138.5125  159.8451 C.ar    1  UNL1        0.0558
     24 C         143.1779  136.4914  156.7007 C.3     1  UNL1        0.2525
     25 O         142.2595  137.2542  157.6089 O.3     1  UNL1       -0.4713
     26 O         144.4803  141.9518  157.5794 O.3     1  UNL1       -0.4790
     27 C         145.7448  141.7517  156.7978 C.3     1  UNL1        0.1661
     28 C         146.9288  142.6383  157.0469 C.3     1  UNL1        0.0472
     29 C         145.8253  140.6648  155.7671 C.3     1  UNL1        0.0472
@<TRIPOS>BOND
     1    24    25    1
     2    25    18    1
     3    18    19   ar
     4    19    20   ar
     5    20    26    1
     6    26    27    1
     7    27    28    1
     8    27    29    1
     9    20    21   ar
    10    21    22   ar
    11    22     1    1
    12     1     2    2
    13     1     3    2
    14     1     4    1
    15     4     5   ar
    16     5     6   ar
    17     6     7   ar
    18     7     8   ar
    19     8     9   ar
    20     8    10    1
    21    10    11    1
    22    11    12    1
    23    12    13    1
    24    13    14    1
    25    14    15    1
    26    16    15    1
    27    22    23   ar
    28    23    18   ar
    29     9     4   ar
    30    16    11    1
    31    16     7    1
    32    13    17    1
