@<TRIPOS>MOLECULE
*****
 39 44 0 0 0
SMALL
GASTEIGER

@<TRIPOS>ATOM
      1 C         137.8478  142.9968  162.8289 C.3     1  UNL1        0.0932
      2 C         137.6304  141.9233  163.8536 C.3     1  UNL1        0.0286
      3 C         137.6517  140.4803  163.4443 C.3     1  UNL1        0.0193
      4 C         137.8905  140.1110  162.0102 C.3     1  UNL1        0.0700
      5 C         138.1079  141.1847  160.9854 C.3     1  UNL1        0.0193
      6 C         138.0866  142.6276  161.3948 C.3     1  UNL1        0.0286
      7 C         137.8877  140.9153  162.1867 C.3     1  UNL1        0.1562
      8 O         137.8684  142.2200  162.5569 O.3     1  UNL1       -0.3572
      9 N         137.9118  138.6682  161.6008 N.3     1  UNL1       -0.2926
     10 H         137.3225  138.5885  160.7721 H       1  UNL1        0.1236
     11 C         139.2144  138.0012  161.2716 C.3     1  UNL1        0.1152
     12 C         140.4070  138.2060  162.1581 C.ar    1  UNL1        0.0765
     13 C         140.5445  137.4147  163.4250 C.ar    1  UNL1        0.0193
     14 C         141.7370  137.6195  164.3115 C.ar    1  UNL1        0.0411
     15 C         142.7920  138.6155  163.9311 C.ar    1  UNL1        0.1708
     16 C         142.6546  139.4068  162.6642 C.ar    1  UNL1        0.1682
     17 N         141.4621  139.2020  161.7777 N.ar    1  UNL1       -0.2304
     18 N         143.7097  140.4029  162.2839 N.am    1  UNL1       -0.2639
     19 C         144.9022  140.6076  163.1704 C.2     1  UNL1        0.2718
     20 O         145.9574  141.6037  162.7900 O.2     1  UNL1       -0.2707
     21 C         145.0397  139.8164  164.4372 C.3     1  UNL1        0.2898
     22 O         143.9846  138.8204  164.8176 O.3     1  UNL1       -0.4628
     23 H         143.6195  140.9222  161.4524 H       1  UNL1        0.1565
     24 C         137.8265  144.4398  163.2382 C.3     1  UNL1        0.0320
     25 C         138.9242  144.9915  164.0988 C.3     1  UNL1        0.0327
     26 C         142.0564  141.8176  167.1592 C.ar    1  UNL1        0.0689
     27 C         140.6586  142.3439  167.2976 C.ar    1  UNL1        0.1134
     28 N         140.0805  143.2264  166.2313 N.ar    1  UNL1       -0.2413
     29 C         140.9001  143.5828  165.0267 C.ar    1  UNL1        0.0972
     30 C         140.3220  144.4653  163.9605 C.ar    1  UNL1        0.0260
     31 C         141.1417  144.8216  162.7559 C.ar    1  UNL1        0.1566
     32 F         140.5636  145.7042  161.6896 F       1  UNL1       -0.2028
     33 C         142.5396  144.2954  162.6175 C.ar    1  UNL1        0.1281
     34 N         143.1177  143.4129  163.6837 N.ar    1  UNL1       -0.2399
     35 C         142.2979  143.0565  164.8884 C.ar    1  UNL1        0.1000
     36 C         142.8761  142.1740  165.9546 C.ar    1  UNL1        0.0367
     37 C         142.6527  139.4469  168.0389 C.3     1  UNL1        0.1123
     38 N         142.6345  140.9351  168.2255 N.pl3   1  UNL1       -0.3028
     39 C         143.1944  141.5407  169.4783 C.3     1  UNL1        0.1123
@<TRIPOS>BOND
     1    37    38    1
     2    38    39    1
     3    38    26    1
     4    26    27   ar
     5    27    28   ar
     6    28    29   ar
     7    29    30   ar
     8    30    25    1
     9    25    24    1
    10    24     1    1
    11     1     2    1
    12     2     3    1
    13     3     4    1
    14     4     9    1
    15     9    11    1
    16    11    12    1
    17    12    13   ar
    18    13    14   ar
    19    14    15   ar
    20    15    16   ar
    21    16    17   ar
    22    16    18    1
    23    18    19   am
    24    19    20    2
    25    19    21    1
    26    21    22    1
    27     4     5    1
    28     5     6    1
    29     4     7    1
    30     7     8    1
    31    30    31   ar
    32    31    32    1
    33    31    33   ar
    34    33    34   ar
    35    34    35   ar
    36    35    36   ar
    37    36    26   ar
    38    35    29   ar
    39     6     1    1
    40     8     1    1
    41    17    12   ar
    42    22    15    1
    43     9    10    1
    44    18    23    1
@<TRIPOS>MOLECULE
*****
 39 44 0 0 0
SMALL
GASTEIGER

@<TRIPOS>ATOM
      1 C         141.8744  138.0614  164.2245 C.3     1  UNL1        0.0932
      2 C         142.0584  138.5348  162.8132 C.3     1  UNL1        0.0286
      3 C         143.2769  139.3265  162.4405 C.3     1  UNL1        0.0193
      4 C         144.3111  139.6447  163.4792 C.3     1  UNL1        0.0700
      5 C         144.1270  139.1713  164.8906 C.3     1  UNL1        0.0193
      6 C         142.9086  138.3797  165.2633 C.3     1  UNL1        0.0286
      7 C         143.6601  139.2080  163.7310 C.3     1  UNL1        0.1562
      8 O         142.5584  138.4921  164.0679 O.3     1  UNL1       -0.3572
      9 N         145.5295  140.4363  163.1066 N.3     1  UNL1       -0.2926
     10 H         145.6500  140.3344  162.0989 H       1  UNL1        0.1236
     11 C         145.5890  141.9054  163.4034 C.3     1  UNL1        0.1152
     12 C         144.3587  142.7508  163.2562 C.ar    1  UNL1        0.0765
     13 C         143.6044  143.1960  164.4739 C.ar    1  UNL1        0.0193
     14 C         142.3741  144.0413  164.3267 C.ar    1  UNL1        0.0411
     15 C         141.8981  144.4416  162.9618 C.ar    1  UNL1        0.1708
     16 C         142.6524  143.9964  161.7440 C.ar    1  UNL1        0.1682
     17 N         143.8827  143.1511  161.8912 N.ar    1  UNL1       -0.2304
     18 N         142.1763  144.3967  160.3790 N.am    1  UNL1       -0.2639
     19 C         140.9460  145.2421  160.2318 C.2     1  UNL1        0.2718
     20 O         140.4699  145.6423  158.8668 O.2     1  UNL1       -0.2707
     21 C         140.1917  145.6872  161.4496 C.3     1  UNL1        0.2898
     22 O         140.6678  145.2870  162.8145 O.3     1  UNL1       -0.4628
     23 H         142.6713  144.1046  159.5797 H       1  UNL1        0.1565
     24 C         140.6559  137.2698  164.5972 C.3     1  UNL1        0.0320
     25 C         139.4449  137.9684  165.1406 C.3     1  UNL1        0.0327
     26 C         140.8603  142.1072  168.3214 C.ar    1  UNL1        0.0689
     27 C         140.9819  140.6167  168.4382 C.ar    1  UNL1        0.1134
     28 N         140.4696  139.7339  167.3390 N.ar    1  UNL1       -0.2413
     29 C         139.8357  140.3416  166.1230 C.ar    1  UNL1        0.0972
     30 C         139.3233  139.4588  165.0238 C.ar    1  UNL1        0.0260
     31 C         138.6894  140.0665  163.8077 C.ar    1  UNL1        0.1566
     32 F         138.1771  139.1838  162.7085 F       1  UNL1       -0.2028
     33 C         138.5678  141.5571  163.6908 C.ar    1  UNL1        0.1281
     34 N         139.0801  142.4398  164.7900 N.ar    1  UNL1       -0.2399
     35 C         139.7141  141.8321  166.0061 C.ar    1  UNL1        0.1000
     36 C         140.2264  142.7148  167.1053 C.ar    1  UNL1        0.0367
     37 C         140.4951  144.0651  169.9896 C.3     1  UNL1        0.1123
     38 N         141.3726  142.9899  169.4206 N.pl3   1  UNL1       -0.3028
     39 C         142.7626  142.7976  169.9507 C.3     1  UNL1        0.1123
@<TRIPOS>BOND
     1    37    38    1
     2    38    39    1
     3    38    26    1
     4    26    27   ar
     5    27    28   ar
     6    28    29   ar
     7    29    30   ar
     8    30    25    1
     9    25    24    1
    10    24     1    1
    11     1     2    1
    12     2     3    1
    13     3     4    1
    14     4     9    1
    15     9    11    1
    16    11    12    1
    17    12    13   ar
    18    13    14   ar
    19    14    15   ar
    20    15    16   ar
    21    16    17   ar
    22    16    18    1
    23    18    19   am
    24    19    20    2
    25    19    21    1
    26    21    22    1
    27     4     5    1
    28     5     6    1
    29     4     7    1
    30     7     8    1
    31    30    31   ar
    32    31    32    1
    33    31    33   ar
    34    33    34   ar
    35    34    35   ar
    36    35    36   ar
    37    36    26   ar
    38    35    29   ar
    39     6     1    1
    40     8     1    1
    41    17    12   ar
    42    22    15    1
    43     9    10    1
    44    18    23    1
@<TRIPOS>MOLECULE
*****
 39 44 0 0 0
SMALL
GASTEIGER

@<TRIPOS>ATOM
      1 C         139.3791  138.0040  164.5695 C.3     1  UNL1        0.0932
      2 C         140.8000  137.6487  164.8931 C.3     1  UNL1        0.0286
      3 C         141.7875  137.4239  163.7865 C.3     1  UNL1        0.0193
      4 C         141.3540  137.5544  162.3564 C.3     1  UNL1        0.0700
      5 C         139.9329  137.9097  162.0330 C.3     1  UNL1        0.0193
      6 C         138.9455  138.1345  163.1395 C.3     1  UNL1        0.0286
      7 C         140.7769  137.6870  162.9286 C.3     1  UNL1        0.1562
      8 O         139.8841  137.8902  163.9292 O.3     1  UNL1       -0.3572
      9 N         142.3414  137.3296  161.2499 N.3     1  UNL1       -0.2926
     10 H         141.8590  137.5432  160.3769 H       1  UNL1        0.1236
     11 C         143.6319  138.0938  161.2297 C.3     1  UNL1        0.1152
     12 C         143.6238  139.5843  161.3987 C.ar    1  UNL1        0.0765
     13 C         143.2521  140.4679  160.2450 C.ar    1  UNL1        0.0193
     14 C         143.2440  141.9583  160.4140 C.ar    1  UNL1        0.0411
     15 C         143.6074  142.5651  161.7367 C.ar    1  UNL1        0.1708
     16 C         143.9790  141.6815  162.8904 C.ar    1  UNL1        0.1682
     17 N         143.9872  140.1911  162.7215 N.ar    1  UNL1       -0.2304
     18 N         144.3425  142.2883  164.2132 N.am    1  UNL1       -0.2639
     19 C         144.3343  143.7787  164.3822 C.2     1  UNL1        0.2718
     20 O         144.6978  144.3856  165.7050 O.2     1  UNL1       -0.2707
     21 C         143.9627  144.6623  163.2284 C.3     1  UNL1        0.2898
     22 O         143.5992  144.0555  161.9057 O.3     1  UNL1       -0.4628
     23 H         144.5864  141.7084  164.9705 H       1  UNL1        0.1565
     24 C         138.3916  138.2288  165.6761 C.3     1  UNL1        0.0320
     25 C         138.1747  139.6103  166.2186 C.3     1  UNL1        0.0327
     26 C         139.6911  143.5319  162.8169 C.ar    1  UNL1        0.0689
     27 C         138.5674  142.5384  162.8241 C.ar    1  UNL1        0.1134
     28 N         138.4365  141.5623  163.9556 N.ar    1  UNL1       -0.2413
     29 C         139.4293  141.5799  165.0798 C.ar    1  UNL1        0.0972
     30 C         139.2984  140.6039  166.2113 C.ar    1  UNL1        0.0260
     31 C         140.2912  140.6214  167.3356 C.ar    1  UNL1        0.1566
     32 F         140.1603  139.6454  168.4671 F       1  UNL1       -0.2028
     33 C         141.4150  141.6150  167.3284 C.ar    1  UNL1        0.1281
     34 N         141.5459  142.5910  166.1969 N.ar    1  UNL1       -0.2399
     35 C         140.5530  142.5734  165.0726 C.ar    1  UNL1        0.1000
     36 C         140.6839  143.5494  163.9411 C.ar    1  UNL1        0.0367
     37 C         139.7834  145.9823  161.9584 C.3     1  UNL1        0.1123
     38 N         139.8220  144.5079  161.6854 N.pl3   1  UNL1       -0.3028
     39 C         139.9916  144.0095  160.2808 C.3     1  UNL1        0.1123
@<TRIPOS>BOND
     1    37    38    1
     2    38    39    1
     3    38    26    1
     4    26    27   ar
     5    27    28   ar
     6    28    29   ar
     7    29    30   ar
     8    30    25    1
     9    25    24    1
    10    24     1    1
    11     1     2    1
    12     2     3    1
    13     3     4    1
    14     4     9    1
    15     9    11    1
    16    11    12    1
    17    12    13   ar
    18    13    14   ar
    19    14    15   ar
    20    15    16   ar
    21    16    17   ar
    22    16    18    1
    23    18    19   am
    24    19    20    2
    25    19    21    1
    26    21    22    1
    27     4     5    1
    28     5     6    1
    29     4     7    1
    30     7     8    1
    31    30    31   ar
    32    31    32    1
    33    31    33   ar
    34    33    34   ar
    35    34    35   ar
    36    35    36   ar
    37    36    26   ar
    38    35    29   ar
    39     6     1    1
    40     8     1    1
    41    17    12   ar
    42    22    15    1
    43     9    10    1
    44    18    23    1
@<TRIPOS>MOLECULE
*****
 39 44 0 0 0
SMALL
GASTEIGER

@<TRIPOS>ATOM
      1 C         143.0342  138.6281  163.1481 C.3     1  UNL1        0.0932
      2 C         142.6576  138.9224  161.7264 C.3     1  UNL1        0.0286
      3 C         141.2973  138.5467  161.2177 C.3     1  UNL1        0.0193
      4 C         140.3138  137.8767  162.1308 C.3     1  UNL1        0.0700
      5 C         140.6906  137.5824  163.5526 C.3     1  UNL1        0.0193
      6 C         142.0507  137.9580  164.0613 C.3     1  UNL1        0.0286
      7 C         141.0473  138.0638  162.4549 C.3     1  UNL1        0.1562
      8 O         142.2772  138.4035  162.9148 O.3     1  UNL1       -0.3572
      9 N         138.9537  137.5010  161.6222 N.3     1  UNL1       -0.2926
     10 H         138.7138  136.6087  162.0542 H       1  UNL1        0.1236
     11 C         137.7887  138.4185  161.8481 C.3     1  UNL1        0.1152
     12 C         137.9932  139.9045  161.8475 C.ar    1  UNL1        0.0765
     13 C         138.2307  140.6283  160.5553 C.ar    1  UNL1        0.0193
     14 C         138.4352  142.1143  160.5546 C.ar    1  UNL1        0.0411
     15 C         138.4022  142.8765  161.8461 C.ar    1  UNL1        0.1708
     16 C         138.1647  142.1527  163.1383 C.ar    1  UNL1        0.1682
     17 N         137.9602  140.6667  163.1390 N.ar    1  UNL1       -0.2304
     18 N         138.1318  142.9149  164.4298 N.am    1  UNL1       -0.2639
     19 C         138.3363  144.4009  164.4291 C.2     1  UNL1        0.2718
     20 O         138.3033  145.1631  165.7206 O.2     1  UNL1       -0.2707
     21 C         138.5738  145.1247  163.1369 C.3     1  UNL1        0.2898
     22 O         138.6067  144.3625  161.8454 O.3     1  UNL1       -0.4628
     23 H         137.9759  142.4399  165.2779 H       1  UNL1        0.1565
     24 C         144.3945  139.0037  163.6569 C.3     1  UNL1        0.0320
     25 C         144.5697  140.2416  164.4857 C.3     1  UNL1        0.0327
     26 C         140.8457  141.4779  168.2077 C.ar    1  UNL1        0.0689
     27 C         141.9466  140.4617  168.1355 C.ar    1  UNL1        0.1134
     28 N         142.8210  140.3883  166.9189 N.ar    1  UNL1       -0.2413
     29 C         142.5944  141.3312  165.7745 C.ar    1  UNL1        0.0972
     30 C         143.4688  141.2579  164.5579 C.ar    1  UNL1        0.0260
     31 C         143.2423  142.2008  163.4136 C.ar    1  UNL1        0.1566
     32 F         144.1166  142.1274  162.1970 F       1  UNL1       -0.2028
     33 C         142.1413  143.2171  163.4858 C.ar    1  UNL1        0.1281
     34 N         141.2670  143.2904  164.7024 N.ar    1  UNL1       -0.2399
     35 C         141.4936  142.3475  165.8468 C.ar    1  UNL1        0.1000
     36 C         140.6192  142.4208  167.0634 C.ar    1  UNL1        0.0367
     37 C         139.9663  142.7896  170.2707 C.3     1  UNL1        0.1123
     38 N         139.9714  141.5512  169.4244 N.pl3   1  UNL1       -0.3028
     39 C         139.1021  140.3862  169.7946 C.3     1  UNL1        0.1123
@<TRIPOS>BOND
     1    37    38    1
     2    38    39    1
     3    38    26    1
     4    26    27   ar
     5    27    28   ar
     6    28    29   ar
     7    29    30   ar
     8    30    25    1
     9    25    24    1
    10    24     1    1
    11     1     2    1
    12     2     3    1
    13     3     4    1
    14     4     9    1
    15     9    11    1
    16    11    12    1
    17    12    13   ar
    18    13    14   ar
    19    14    15   ar
    20    15    16   ar
    21    16    17   ar
    22    16    18    1
    23    18    19   am
    24    19    20    2
    25    19    21    1
    26    21    22    1
    27     4     5    1
    28     5     6    1
    29     4     7    1
    30     7     8    1
    31    30    31   ar
    32    31    32    1
    33    31    33   ar
    34    33    34   ar
    35    34    35   ar
    36    35    36   ar
    37    36    26   ar
    38    35    29   ar
    39     6     1    1
    40     8     1    1
    41    17    12   ar
    42    22    15    1
    43     9    10    1
    44    18    23    1
@<TRIPOS>MOLECULE
*****
 39 44 0 0 0
SMALL
GASTEIGER

@<TRIPOS>ATOM
      1 C         144.3494  139.4791  163.8459 C.3     1  UNL1        0.0932
      2 C         144.1167  139.0419  162.4301 C.3     1  UNL1        0.0286
      3 C         142.8972  138.2400  162.0836 C.3     1  UNL1        0.0193
      4 C         141.9106  137.8754  163.1530 C.3     1  UNL1        0.0700
      5 C         142.1434  138.3126  164.5689 C.3     1  UNL1        0.0193
      6 C         143.3628  139.1144  164.9153 C.3     1  UNL1        0.0286
      7 C         142.5641  138.3161  163.3911 C.3     1  UNL1        0.1562
      8 O         143.6667  139.0412  163.7044 O.3     1  UNL1       -0.3572
      9 N         140.6912  137.0736  162.8065 N.3     1  UNL1       -0.2926
     10 H         140.4533  136.5268  163.6341 H       1  UNL1        0.1236
     11 C         139.4353  137.7687  162.3711 C.3     1  UNL1        0.1152
     12 C         139.0465  139.0759  162.9957 C.ar    1  UNL1        0.0765
     13 C         138.5157  139.1085  164.3983 C.ar    1  UNL1        0.0193
     14 C         138.1269  140.4157  165.0228 C.ar    1  UNL1        0.0411
     15 C         138.2689  141.6902  164.2448 C.ar    1  UNL1        0.1708
     16 C         138.7996  141.6576  162.8423 C.ar    1  UNL1        0.1682
     17 N         139.1885  140.3505  162.2177 N.ar    1  UNL1       -0.2304
     18 N         138.9416  142.9322  162.0642 N.am    1  UNL1       -0.2639
     19 C         138.5528  144.2394  162.6888 C.2     1  UNL1        0.2718
     20 O         138.6947  145.5140  161.9108 O.2     1  UNL1       -0.2707
     21 C         138.0220  144.2720  164.0914 C.3     1  UNL1        0.2898
     22 O         137.8801  142.9975  164.8694 O.3     1  UNL1       -0.4628
     23 H         139.2899  142.9109  161.1437 H       1  UNL1        0.1565
     24 C         145.5689  140.2809  164.1925 C.3     1  UNL1        0.0320
     25 C         145.6355  141.7365  163.8363 C.3     1  UNL1        0.0327
     26 C         143.1381  143.3209  159.3084 C.ar    1  UNL1        0.0689
     27 C         144.3993  142.5588  159.5883 C.ar    1  UNL1        0.1134
     28 N         144.8114  142.2847  161.0043 N.ar    1  UNL1       -0.2413
     29 C         143.9622  142.7727  162.1404 C.ar    1  UNL1        0.0972
     30 C         144.3743  142.4986  163.5564 C.ar    1  UNL1        0.0260
     31 C         143.5251  142.9866  164.6925 C.ar    1  UNL1        0.1566
     32 F         143.9371  142.7125  166.1085 F       1  UNL1       -0.2028
     33 C         142.2638  143.7488  164.4125 C.ar    1  UNL1        0.1281
     34 N         141.8517  144.0229  162.9965 N.ar    1  UNL1       -0.2399
     35 C         142.7010  143.5348  161.8604 C.ar    1  UNL1        0.1000
     36 C         142.2889  143.8089  160.4444 C.ar    1  UNL1        0.0367
     37 C         142.0331  144.8801  157.5483 C.3     1  UNL1        0.1123
     38 N         142.7260  143.5950  157.8924 N.pl3   1  UNL1       -0.3028
     39 C         143.0069  142.5841  156.8204 C.3     1  UNL1        0.1123
@<TRIPOS>BOND
     1    37    38    1
     2    38    39    1
     3    38    26    1
     4    26    27   ar
     5    27    28   ar
     6    28    29   ar
     7    29    30   ar
     8    30    25    1
     9    25    24    1
    10    24     1    1
    11     1     2    1
    12     2     3    1
    13     3     4    1
    14     4     9    1
    15     9    11    1
    16    11    12    1
    17    12    13   ar
    18    13    14   ar
    19    14    15   ar
    20    15    16   ar
    21    16    17   ar
    22    16    18    1
    23    18    19   am
    24    19    20    2
    25    19    21    1
    26    21    22    1
    27     4     5    1
    28     5     6    1
    29     4     7    1
    30     7     8    1
    31    30    31   ar
    32    31    32    1
    33    31    33   ar
    34    33    34   ar
    35    34    35   ar
    36    35    36   ar
    37    36    26   ar
    38    35    29   ar
    39     6     1    1
    40     8     1    1
    41    17    12   ar
    42    22    15    1
    43     9    10    1
    44    18    23    1
@<TRIPOS>MOLECULE
*****
 39 44 0 0 0
SMALL
GASTEIGER

@<TRIPOS>ATOM
      1 C         137.9400  139.9624  161.9459 C.3     1  UNL1        0.0932
      2 C         137.3879  140.5997  163.1864 C.3     1  UNL1        0.0286
      3 C         137.3352  142.0944  163.3020 C.3     1  UNL1        0.0193
      4 C         137.8345  142.9517  162.1770 C.3     1  UNL1        0.0700
      5 C         138.3866  142.3143  160.9364 C.3     1  UNL1        0.0193
      6 C         138.4393  140.8197  160.8208 C.3     1  UNL1        0.0286
      7 C         137.8838  142.1370  162.0677 C.3     1  UNL1        0.1562
      8 O         137.9315  140.7856  161.9632 O.3     1  UNL1       -0.3572
      9 N         137.7817  144.4463  162.2925 N.3     1  UNL1       -0.2926
     10 H         136.9682  144.6687  162.8662 H       1  UNL1        0.1236
     11 C         138.9423  145.1946  162.8782 C.3     1  UNL1        0.1152
     12 C         140.0624  144.4453  163.5369 C.ar    1  UNL1        0.0765
     13 C         139.9568  144.0560  164.9816 C.ar    1  UNL1        0.0193
     14 C         141.0769  143.3067  165.6403 C.ar    1  UNL1        0.0411
     15 C         142.3026  142.9467  164.8542 C.ar    1  UNL1        0.1708
     16 C         142.4082  143.3360  163.4095 C.ar    1  UNL1        0.1682
     17 N         141.2882  144.0853  162.7508 N.ar    1  UNL1       -0.2304
     18 N         143.6341  142.9759  162.6234 N.am    1  UNL1       -0.2639
     19 C         144.7542  142.2266  163.2821 C.2     1  UNL1        0.2718
     20 O         145.9800  141.8666  162.4961 O.2     1  UNL1       -0.2707
     21 C         144.6485  141.8374  164.7269 C.3     1  UNL1        0.2898
     22 O         143.4228  142.1974  165.5129 O.3     1  UNL1       -0.4628
     23 H         143.7034  143.2314  161.6752 H       1  UNL1        0.1565
     24 C         137.9928  138.4678  161.8303 C.3     1  UNL1        0.0320
     25 C         138.6845  137.6578  162.8865 C.3     1  UNL1        0.0327
     26 C         140.1337  139.7887  167.6414 C.ar    1  UNL1        0.0689
     27 C         138.8310  139.3164  167.0671 C.ar    1  UNL1        0.1134
     28 N         138.7822  138.7635  165.6736 N.ar    1  UNL1       -0.2413
     29 C         140.0360  138.6831  164.8543 C.ar    1  UNL1        0.0972
     30 C         139.9872  138.1302  163.4607 C.ar    1  UNL1        0.0260
     31 C         141.2411  138.0498  162.6414 C.ar    1  UNL1        0.1566
     32 F         141.1922  137.4970  161.2478 F       1  UNL1       -0.2028
     33 C         142.5438  138.5222  163.2156 C.ar    1  UNL1        0.1281
     34 N         142.5927  139.0751  164.6092 N.ar    1  UNL1       -0.2399
     35 C         141.3387  139.1555  165.4285 C.ar    1  UNL1        0.1000
     36 C         141.3876  139.7083  166.8221 C.ar    1  UNL1        0.0367
     37 C         141.4851  140.8148  169.6088 C.3     1  UNL1        0.1123
     38 N         140.1825  140.3416  169.0349 N.pl3   1  UNL1       -0.3028
     39 C         138.9289  140.4212  169.8546 C.3     1  UNL1        0.1123
@<TRIPOS>BOND
     1    37    38    1
     2    38    39    1
     3    38    26    1
     4    26    27   ar
     5    27    28   ar
     6    28    29   ar
     7    29    30   ar
     8    30    25    1
     9    25    24    1
    10    24     1    1
    11     1     2    1
    12     2     3    1
    13     3     4    1
    14     4     9    1
    15     9    11    1
    16    11    12    1
    17    12    13   ar
    18    13    14   ar
    19    14    15   ar
    20    15    16   ar
    21    16    17   ar
    22    16    18    1
    23    18    19   am
    24    19    20    2
    25    19    21    1
    26    21    22    1
    27     4     5    1
    28     5     6    1
    29     4     7    1
    30     7     8    1
    31    30    31   ar
    32    31    32    1
    33    31    33   ar
    34    33    34   ar
    35    34    35   ar
    36    35    36   ar
    37    36    26   ar
    38    35    29   ar
    39     6     1    1
    40     8     1    1
    41    17    12   ar
    42    22    15    1
    43     9    10    1
    44    18    23    1
@<TRIPOS>MOLECULE
*****
 39 44 0 0 0
SMALL
GASTEIGER

@<TRIPOS>ATOM
      1 C         142.9986  138.6039  162.7597 C.3     1  UNL1        0.0932
      2 C         141.7069  138.2854  162.0668 C.3     1  UNL1        0.0286
      3 C         140.5112  137.8613  162.8671 C.3     1  UNL1        0.0193
      4 C         140.6071  137.7559  164.3603 C.3     1  UNL1        0.0700
      5 C         141.8988  138.0745  165.0532 C.3     1  UNL1        0.0193
      6 C         143.0945  138.4985  164.2529 C.3     1  UNL1        0.0286
      7 C         141.2892  137.9924  163.9643 C.3     1  UNL1        0.1562
      8 O         142.3704  138.3757  163.2406 O.3     1  UNL1       -0.3572
      9 N         139.4114  137.3319  165.1607 N.3     1  UNL1       -0.2926
     10 H         139.7631  136.7949  165.9534 H       1  UNL1        0.1236
     11 C         138.4771  138.3648  165.7176 C.3     1  UNL1        0.1152
     12 C         139.0261  139.5857  166.3943 C.ar    1  UNL1        0.0765
     13 C         139.4175  140.7828  165.5796 C.ar    1  UNL1        0.0193
     14 C         139.9665  142.0037  166.2563 C.ar    1  UNL1        0.0411
     15 C         140.1241  142.0275  167.7477 C.ar    1  UNL1        0.1708
     16 C         139.7328  140.8304  168.5625 C.ar    1  UNL1        0.1682
     17 N         139.1838  139.6095  167.8858 N.ar    1  UNL1       -0.2304
     18 N         139.8904  140.8543  170.0541 N.am    1  UNL1       -0.2639
     19 C         140.4394  142.0752  170.7308 C.2     1  UNL1        0.2718
     20 O         140.5971  142.0991  172.2223 O.2     1  UNL1       -0.2707
     21 C         140.8307  143.2723  169.9160 C.3     1  UNL1        0.2898
     22 O         140.6731  143.2485  168.4245 O.3     1  UNL1       -0.4628
     23 H         139.6336  140.0686  170.5888 H       1  UNL1        0.1565
     24 C         144.1943  139.0279  161.9594 C.3     1  UNL1        0.0320
     25 C         144.4330  140.4824  161.6809 C.3     1  UNL1        0.0327
     26 C         140.5010  144.1242  162.4069 C.ar    1  UNL1        0.0689
     27 C         140.7884  143.1009  161.3485 C.ar    1  UNL1        0.1134
     28 N         142.0032  142.2280  161.4593 N.ar    1  UNL1       -0.2413
     29 C         142.9307  142.3785  162.6285 C.ar    1  UNL1        0.0972
     30 C         144.1456  141.5057  162.7393 C.ar    1  UNL1        0.0260
     31 C         145.0731  141.6562  163.9085 C.ar    1  UNL1        0.1566
     32 F         146.2880  140.7834  164.0193 F       1  UNL1       -0.2028
     33 C         144.7858  142.6795  164.9669 C.ar    1  UNL1        0.1281
     34 N         143.5709  143.5523  164.8561 N.ar    1  UNL1       -0.2399
     35 C         142.6434  143.4018  163.6869 C.ar    1  UNL1        0.1000
     36 C         141.4285  144.2746  163.5761 C.ar    1  UNL1        0.0367
     37 C         139.3902  146.3494  161.6558 C.3     1  UNL1        0.1123
     38 N         139.2861  144.9970  162.2961 N.pl3   1  UNL1       -0.3028
     39 C         137.9672  144.5173  162.8255 C.3     1  UNL1        0.1123
@<TRIPOS>BOND
     1    37    38    1
     2    38    39    1
     3    38    26    1
     4    26    27   ar
     5    27    28   ar
     6    28    29   ar
     7    29    30   ar
     8    30    25    1
     9    25    24    1
    10    24     1    1
    11     1     2    1
    12     2     3    1
    13     3     4    1
    14     4     9    1
    15     9    11    1
    16    11    12    1
    17    12    13   ar
    18    13    14   ar
    19    14    15   ar
    20    15    16   ar
    21    16    17   ar
    22    16    18    1
    23    18    19   am
    24    19    20    2
    25    19    21    1
    26    21    22    1
    27     4     5    1
    28     5     6    1
    29     4     7    1
    30     7     8    1
    31    30    31   ar
    32    31    32    1
    33    31    33   ar
    34    33    34   ar
    35    34    35   ar
    36    35    36   ar
    37    36    26   ar
    38    35    29   ar
    39     6     1    1
    40     8     1    1
    41    17    12   ar
    42    22    15    1
    43     9    10    1
    44    18    23    1
@<TRIPOS>MOLECULE
*****
 39 44 0 0 0
SMALL
GASTEIGER

@<TRIPOS>ATOM
      1 C         139.8663  137.9602  164.1997 C.3     1  UNL1        0.0932
      2 C         141.2427  137.9441  164.7958 C.3     1  UNL1        0.0286
      3 C         142.4447  137.8375  163.9048 C.3     1  UNL1        0.0193
      4 C         142.2704  137.7471  162.4178 C.3     1  UNL1        0.0700
      5 C         140.8940  137.7632  161.8216 C.3     1  UNL1        0.0193
      6 C         139.6920  137.8698  162.7126 C.3     1  UNL1        0.0286
      7 C         141.5817  137.8040  162.8654 C.3     1  UNL1        0.1562
      8 O         140.4948  137.9004  163.6711 O.3     1  UNL1       -0.3572
      9 N         143.4724  137.6405  161.5268 N.3     1  UNL1       -0.2926
     10 H         143.2304  136.9859  160.7830 H       1  UNL1        0.1236
     11 C         144.0242  138.8666  160.8620 C.3     1  UNL1        0.1152
     12 C         143.7420  140.2230  161.4371 C.ar    1  UNL1        0.0765
     13 C         142.7273  141.1167  160.7876 C.ar    1  UNL1        0.0193
     14 C         142.4450  142.4730  161.3626 C.ar    1  UNL1        0.0411
     15 C         143.1774  142.9356  162.5872 C.ar    1  UNL1        0.1708
     16 C         144.1921  142.0419  163.2367 C.ar    1  UNL1        0.1682
     17 N         144.4743  140.6856  162.6616 N.ar    1  UNL1       -0.2304
     18 N         144.9244  142.5047  164.4613 N.am    1  UNL1       -0.2639
     19 C         144.6422  143.8610  165.0363 C.2     1  UNL1        0.2718
     20 O         145.3746  144.3237  166.2609 O.2     1  UNL1       -0.2707
     21 C         143.6275  144.7546  164.3868 C.3     1  UNL1        0.2898
     22 O         142.8952  144.2920  163.1623 O.3     1  UNL1       -0.4628
     23 H         145.5904  141.9181  164.8876 H       1  UNL1        0.1565
     24 C         138.6643  138.0668  165.0906 C.3     1  UNL1        0.0320
     25 C         138.0051  139.3971  165.3049 C.3     1  UNL1        0.0327
     26 C         141.4794  141.5844  168.8255 C.ar    1  UNL1        0.0689
     27 C         140.6551  140.3312  168.8198 C.ar    1  UNL1        0.1134
     28 N         139.7718  140.0199  167.6482 N.ar    1  UNL1       -0.2413
     29 C         139.7127  140.9617  166.4822 C.ar    1  UNL1        0.0972
     30 C         138.8294  140.6503  165.3106 C.ar    1  UNL1        0.0260
     31 C         138.7704  141.5921  164.1446 C.ar    1  UNL1        0.1566
     32 F         137.8870  141.2807  162.9730 F       1  UNL1       -0.2028
     33 C         139.5947  142.8453  164.1503 C.ar    1  UNL1        0.1281
     34 N         140.4780  143.1567  165.3220 N.ar    1  UNL1       -0.2399
     35 C         140.5370  142.2148  166.4879 C.ar    1  UNL1        0.1000
     36 C         141.4203  142.5262  167.6596 C.ar    1  UNL1        0.0367
     37 C         143.7956  142.2798  169.7751 C.3     1  UNL1        0.1123
     38 N         142.3627  141.8958  169.9972 N.pl3   1  UNL1       -0.3028
     39 C         141.8132  141.8232  171.3910 C.3     1  UNL1        0.1123
@<TRIPOS>BOND
     1    37    38    1
     2    38    39    1
     3    38    26    1
     4    26    27   ar
     5    27    28   ar
     6    28    29   ar
     7    29    30   ar
     8    30    25    1
     9    25    24    1
    10    24     1    1
    11     1     2    1
    12     2     3    1
    13     3     4    1
    14     4     9    1
    15     9    11    1
    16    11    12    1
    17    12    13   ar
    18    13    14   ar
    19    14    15   ar
    20    15    16   ar
    21    16    17   ar
    22    16    18    1
    23    18    19   am
    24    19    20    2
    25    19    21    1
    26    21    22    1
    27     4     5    1
    28     5     6    1
    29     4     7    1
    30     7     8    1
    31    30    31   ar
    32    31    32    1
    33    31    33   ar
    34    33    34   ar
    35    34    35   ar
    36    35    36   ar
    37    36    26   ar
    38    35    29   ar
    39     6     1    1
    40     8     1    1
    41    17    12   ar
    42    22    15    1
    43     9    10    1
    44    18    23    1
@<TRIPOS>MOLECULE
*****
 39 44 0 0 0
SMALL
GASTEIGER

@<TRIPOS>ATOM
      1 C         138.4928  144.2544  162.8773 C.3     1  UNL1        0.0932
      2 C         137.9945  143.1067  162.0502 C.3     1  UNL1        0.0286
      3 C         137.7682  141.7668  162.6856 C.3     1  UNL1        0.0193
      4 C         138.0401  141.5749  164.1482 C.3     1  UNL1        0.0700
      5 C         138.5385  142.7227  164.9754 C.3     1  UNL1        0.0193
      6 C         138.7648  144.0625  164.3399 C.3     1  UNL1        0.0286
      7 C         138.1791  142.3275  163.8445 C.3     1  UNL1        0.1562
      8 O         138.3838  143.5390  163.2699 O.3     1  UNL1       -0.3572
      9 N         137.8138  140.2351  164.7836 N.3     1  UNL1       -0.2926
     10 H         137.1118  139.7564  164.2194 H       1  UNL1        0.1236
     11 C         138.9593  139.2811  164.9505 C.3     1  UNL1        0.1152
     12 C         139.9714  139.5068  166.0344 C.ar    1  UNL1        0.0765
     13 C         141.3982  139.0935  165.8259 C.ar    1  UNL1        0.0193
     14 C         142.4104  139.3191  166.9097 C.ar    1  UNL1        0.0411
     15 C         141.9958  139.9579  168.2019 C.ar    1  UNL1        0.1708
     16 C         140.5689  140.3712  168.4104 C.ar    1  UNL1        0.1682
     17 N         139.5568  140.1456  167.3266 N.ar    1  UNL1       -0.2304
     18 N         140.1543  141.0100  169.7027 N.am    1  UNL1       -0.2639
     19 C         141.1665  141.2356  170.7864 C.2     1  UNL1        0.2718
     20 O         140.7519  141.8745  172.0788 O.2     1  UNL1       -0.2707
     21 C         142.5933  140.8224  170.5780 C.3     1  UNL1        0.2898
     22 O         143.0079  140.1835  169.2857 O.3     1  UNL1       -0.4628
     23 H         139.2179  141.2813  169.8395 H       1  UNL1        0.1565
     24 C         138.7191  145.5943  162.2419 C.3     1  UNL1        0.0320
     25 C         140.0987  145.9973  161.8127 C.3     1  UNL1        0.0327
     26 C         143.6883  142.0280  162.5934 C.ar    1  UNL1        0.0689
     27 C         142.9003  142.9133  163.5128 C.ar    1  UNL1        0.1134
     28 N         141.9664  143.9413  162.9461 N.ar    1  UNL1       -0.2413
     29 C         141.8206  144.0840  161.4600 C.ar    1  UNL1        0.0972
     30 C         140.8868  145.1120  160.8933 C.ar    1  UNL1        0.0260
     31 C         140.7410  145.2547  159.4073 C.ar    1  UNL1        0.1566
     32 F         139.8071  146.2827  158.8406 F       1  UNL1       -0.2028
     33 C         141.5290  144.3694  158.4879 C.ar    1  UNL1        0.1281
     34 N         142.4629  143.3414  159.0546 N.ar    1  UNL1       -0.2399
     35 C         142.6087  143.1988  160.5407 C.ar    1  UNL1        0.1000
     36 C         143.5425  142.1708  161.1074 C.ar    1  UNL1        0.0367
     37 C         144.2896  139.5417  163.0479 C.3     1  UNL1        0.1123
     38 N         144.6222  141.0001  163.1601 N.pl3   1  UNL1       -0.3028
     39 C         145.8886  141.4304  163.8390 C.3     1  UNL1        0.1123
@<TRIPOS>BOND
     1    37    38    1
     2    38    39    1
     3    38    26    1
     4    26    27   ar
     5    27    28   ar
     6    28    29   ar
     7    29    30   ar
     8    30    25    1
     9    25    24    1
    10    24     1    1
    11     1     2    1
    12     2     3    1
    13     3     4    1
    14     4     9    1
    15     9    11    1
    16    11    12    1
    17    12    13   ar
    18    13    14   ar
    19    14    15   ar
    20    15    16   ar
    21    16    17   ar
    22    16    18    1
    23    18    19   am
    24    19    20    2
    25    19    21    1
    26    21    22    1
    27     4     5    1
    28     5     6    1
    29     4     7    1
    30     7     8    1
    31    30    31   ar
    32    31    32    1
    33    31    33   ar
    34    33    34   ar
    35    34    35   ar
    36    35    36   ar
    37    36    26   ar
    38    35    29   ar
    39     6     1    1
    40     8     1    1
    41    17    12   ar
    42    22    15    1
    43     9    10    1
    44    18    23    1
