@<TRIPOS>MOLECULE
*****
 29 32 0 0 0
SMALL
GASTEIGER

@<TRIPOS>ATOM
      1 C         139.1480  139.1755  165.4449 C.2     1  UNL1       -0.0164
      2 C         138.0247  138.5650  166.2294 C.2     1  UNL1       -0.0023
      3 C         137.8868  138.8581  167.6940 C.2     1  UNL1        0.0203
      4 C         138.8722  139.7617  168.3740 C.2     1  UNL1        0.1008
      5 N         138.9904  140.2302  169.7942 N.2     1  UNL1       -0.1481
      6 N         140.1867  141.1302  169.8873 N.2     1  UNL1       -0.1436
      7 C         140.8079  141.2180  168.5247 C.2     1  UNL1        0.1537
      8 C         139.9955  140.3722  167.5895 C.2     1  UNL1        0.0255
      9 C         140.1334  140.0791  166.1250 C.3     1  UNL1        0.0560
     10 C         138.5344  139.7057  162.9766 C.ar    1  UNL1        0.0100
     11 C         138.6723  139.4126  161.5120 C.ar    1  UNL1        0.0188
     12 C         139.5618  138.2962  161.0510 C.ar    1  UNL1        0.0986
     13 N         140.3133  137.4728  162.0547 N.ar    1  UNL1       -0.2423
     14 C         140.1753  137.7659  163.5193 C.ar    1  UNL1        0.0983
     15 C         139.2859  138.8823  163.9802 C.ar    1  UNL1        0.0139
     16 C         137.6450  140.8222  163.4376 C.3     1  UNL1        0.1688
     17 C         137.8156  143.3084  162.7029 C.3     1  UNL1        0.1746
     18 O         138.2087  142.1985  163.6323 O.3     1  UNL1       -0.3463
     19 C         142.0274  142.0121  168.1612 C.2     1  UNL1        0.2651
     20 O         142.7411  142.8128  169.2097 O.2     1  UNL1       -0.2684
     21 N         142.5332  142.0056  166.7491 N.am    1  UNL1       -0.2996
     22 H         142.0648  141.4800  166.0609 H       1  UNL1        0.1498
     23 C         143.7527  142.7997  166.3856 C.3     1  UNL1        0.0899
     24 C         144.1127  143.0036  164.9437 C.3     1  UNL1        0.0246
     25 C         143.7001  144.2614  164.2383 C.3     1  UNL1        0.0338
     26 C         144.0601  144.4653  162.7964 C.3     1  UNL1        0.1422
     27 O         144.8326  143.4114  162.0600 O.3     1  UNL1       -0.3538
     28 C         145.2452  142.1535  162.7655 C.3     1  UNL1        0.1422
     29 C         144.8853  141.9496  164.2073 C.3     1  UNL1        0.0338
@<TRIPOS>BOND
     1    17    18    1
     2    18    16    1
     3    16    10    1
     4    10    11   ar
     5    11    12   ar
     6    12    13   ar
     7    13    14   ar
     8    14    15   ar
     9    15     1    1
    10     1     2    2
    11     2     3    1
    12     3     4    2
    13     4     5    1
    14     5     6    2
    15     6     7    1
    16     7    19    1
    17    19    20    2
    18    19    21   am
    19    21    23    1
    20    23    24    1
    21    24    25    1
    22    25    26    1
    23    26    27    1
    24    27    28    1
    25    28    29    1
    26     7     8    2
    27     8     9    1
    28    15    10   ar
    29     9     1    1
    30     8     4    1
    31    29    24    1
    32    21    22    1
@<TRIPOS>MOLECULE
*****
 29 32 0 0 0
SMALL
GASTEIGER

@<TRIPOS>ATOM
      1 C         142.5701  140.0230  167.4826 C.2     1  UNL1       -0.0164
      2 C         143.2179  138.6706  167.4453 C.2     1  UNL1       -0.0023
      3 C         143.9099  138.2047  166.1987 C.2     1  UNL1        0.0203
      4 C         143.9542  139.0912  164.9895 C.2     1  UNL1        0.1008
      5 N         144.5587  138.9042  163.6294 N.2     1  UNL1       -0.1481
      6 N         144.2845  140.1410  162.8263 N.2     1  UNL1       -0.1436
      7 C         143.5106  141.0924  163.6899 C.2     1  UNL1        0.1537
      8 C         143.3064  140.4436  165.0268 C.2     1  UNL1        0.0255
      9 C         142.6144  140.9095  166.2734 C.3     1  UNL1        0.0560
     10 C         140.3838  140.4080  168.8324 C.ar    1  UNL1        0.0100
     11 C         139.6917  140.8740  170.0789 C.ar    1  UNL1        0.0188
     12 C         140.4939  141.4209  171.2224 C.ar    1  UNL1        0.0986
     13 N         141.9882  141.5019  171.1192 N.ar    1  UNL1       -0.2423
     14 C         142.6803  141.0359  169.8726 C.ar    1  UNL1        0.0983
     15 C         141.8781  140.4890  168.7292 C.ar    1  UNL1        0.0139
     16 C         139.5816  139.8611  167.6889 C.3     1  UNL1        0.1688
     17 C         137.6824  138.2864  166.8745 C.3     1  UNL1        0.1746
     18 O         138.3052  139.1196  167.9552 O.3     1  UNL1       -0.3463
     19 C         143.0259  142.4536  163.2873 C.2     1  UNL1        0.2651
     20 O         142.6247  142.7170  161.8662 O.2     1  UNL1       -0.2684
     21 N         142.9424  143.5516  164.3059 N.am    1  UNL1       -0.2996
     22 H         143.2057  143.3788  165.2387 H       1  UNL1        0.1498
     23 C         142.4577  144.9128  163.9033 C.3     1  UNL1        0.0899
     24 C         141.0686  145.0852  163.3641 C.3     1  UNL1        0.0246
     25 C         139.9001  144.5011  164.1012 C.3     1  UNL1        0.0338
     26 C         138.5109  144.6734  163.5621 C.3     1  UNL1        0.1422
     27 O         138.2903  145.4299  162.2858 O.3     1  UNL1       -0.3538
     28 C         139.4588  146.0141  161.5487 C.3     1  UNL1        0.1422
     29 C         140.8480  145.8418  162.0878 C.3     1  UNL1        0.0338
@<TRIPOS>BOND
     1    17    18    1
     2    18    16    1
     3    16    10    1
     4    10    11   ar
     5    11    12   ar
     6    12    13   ar
     7    13    14   ar
     8    14    15   ar
     9    15     1    1
    10     1     2    2
    11     2     3    1
    12     3     4    2
    13     4     5    1
    14     5     6    2
    15     6     7    1
    16     7    19    1
    17    19    20    2
    18    19    21   am
    19    21    23    1
    20    23    24    1
    21    24    25    1
    22    25    26    1
    23    26    27    1
    24    27    28    1
    25    28    29    1
    26     7     8    2
    27     8     9    1
    28    15    10   ar
    29     9     1    1
    30     8     4    1
    31    29    24    1
    32    21    22    1
@<TRIPOS>MOLECULE
*****
 29 32 0 0 0
SMALL
GASTEIGER

@<TRIPOS>ATOM
      1 C         140.8029  142.4594  167.0303 C.2     1  UNL1       -0.0164
      2 C         140.1677  143.5695  167.8140 C.2     1  UNL1       -0.0023
      3 C         140.2114  143.5494  169.3132 C.2     1  UNL1        0.0203
      4 C         140.8903  142.4193  170.0287 C.2     1  UNL1        0.1008
      5 N         141.0907  142.1307  171.4870 N.2     1  UNL1       -0.1481
      6 N         141.8497  140.8423  171.6045 N.2     1  UNL1       -0.1436
      7 C         142.1184  140.3346  170.2189 C.2     1  UNL1        0.1537
      8 C         141.5254  141.3092  169.2449 C.2     1  UNL1        0.0255
      9 C         141.4817  141.3293  167.7458 C.3     1  UNL1        0.0560
     10 C         139.6895  141.7220  164.8017 C.ar    1  UNL1        0.0100
     11 C         139.6458  141.7420  163.3025 C.ar    1  UNL1        0.0188
     12 C         140.6719  142.5195  162.5325 C.ar    1  UNL1        0.0986
     13 N         141.7416  143.2770  163.2618 N.ar    1  UNL1       -0.2423
     14 C         141.7853  143.2570  164.7611 C.ar    1  UNL1        0.0983
     15 C         140.7592  142.4795  165.5310 C.ar    1  UNL1        0.0139
     16 C         138.6635  140.9445  165.5716 C.3     1  UNL1        0.1688
     17 C         139.1810  138.4260  165.1983 C.3     1  UNL1        0.1746
     18 O         138.2376  139.5875  165.0948 O.3     1  UNL1       -0.3463
     19 C         142.8514  139.0736  169.8686 C.2     1  UNL1        0.2651
     20 O         143.1392  138.7474  168.4331 O.2     1  UNL1       -0.2684
     21 N         143.2966  138.1388  170.9539 N.am    1  UNL1       -0.2996
     22 H         143.1077  138.3528  171.8961 H       1  UNL1        0.1498
     23 C         144.0296  136.8778  170.6036 C.3     1  UNL1        0.0899
     24 C         144.9005  136.2082  171.6249 C.3     1  UNL1        0.0246
     25 C         145.9060  137.0113  172.3956 C.3     1  UNL1        0.0338
     26 C         146.7770  136.3417  173.4169 C.3     1  UNL1        0.1422
     27 O         146.6424  134.8690  173.6676 O.3     1  UNL1       -0.3538
     28 C         145.6369  134.0658  172.8970 C.3     1  UNL1        0.1422
     29 C         144.7659  134.7354  171.8756 C.3     1  UNL1        0.0338
@<TRIPOS>BOND
     1    17    18    1
     2    18    16    1
     3    16    10    1
     4    10    11   ar
     5    11    12   ar
     6    12    13   ar
     7    13    14   ar
     8    14    15   ar
     9    15     1    1
    10     1     2    2
    11     2     3    1
    12     3     4    2
    13     4     5    1
    14     5     6    2
    15     6     7    1
    16     7    19    1
    17    19    20    2
    18    19    21   am
    19    21    23    1
    20    23    24    1
    21    24    25    1
    22    25    26    1
    23    26    27    1
    24    27    28    1
    25    28    29    1
    26     7     8    2
    27     8     9    1
    28    15    10   ar
    29     9     1    1
    30     8     4    1
    31    29    24    1
    32    21    22    1
@<TRIPOS>MOLECULE
*****
 29 32 0 0 0
SMALL
GASTEIGER

@<TRIPOS>ATOM
      1 C         142.9241  141.8425  165.8788 C.2     1  UNL1       -0.0164
      2 C         143.3774  142.4144  167.1893 C.2     1  UNL1       -0.0023
      3 C         142.6172  142.1063  168.4451 C.2     1  UNL1        0.0203
      4 C         141.4037  141.2263  168.3904 C.2     1  UNL1        0.1008
      5 N         140.4600  140.7506  169.4550 N.2     1  UNL1       -0.1481
      6 N         139.4236  139.8847  168.8024 N.2     1  UNL1       -0.1436
      7 C         139.7266  139.8252  167.3346 C.2     1  UNL1        0.1537
      8 C         140.9504  140.6543  167.0799 C.2     1  UNL1        0.0255
      9 C         141.7107  140.9624  165.8241 C.3     1  UNL1        0.0560
     10 C         143.3020  143.3355  163.7864 C.ar    1  UNL1        0.0100
     11 C         144.0622  143.6436  162.5305 C.ar    1  UNL1        0.0188
     12 C         145.2047  142.7668  162.1111 C.ar    1  UNL1        0.0986
     13 N         145.5870  141.5818  162.9476 N.ar    1  UNL1       -0.2423
     14 C         144.8268  141.2737  164.2035 C.ar    1  UNL1        0.0983
     15 C         143.6844  142.1506  164.6229 C.ar    1  UNL1        0.0139
     16 C         142.1595  144.2124  164.2058 C.3     1  UNL1        0.1688
     17 C         140.6518  145.4864  162.5165 C.3     1  UNL1        0.1746
     18 O         141.8429  145.4551  163.4277 O.3     1  UNL1       -0.3463
     19 C         138.9434  139.0693  166.3025 C.2     1  UNL1        0.2651
     20 O         137.4919  138.7697  166.5333 O.2     1  UNL1       -0.2684
     21 N         139.6117  138.6130  165.0395 N.am    1  UNL1       -0.2996
     22 H         140.5644  138.8096  164.8879 H       1  UNL1        0.1498
     23 C         138.8285  137.8571  164.0074 C.3     1  UNL1        0.0899
     24 C         138.8198  138.3241  162.5820 C.3     1  UNL1        0.0246
     25 C         137.6758  139.1480  162.0697 C.3     1  UNL1        0.0338
     26 C         137.6669  139.6150  160.6443 C.3     1  UNL1        0.1422
     27 O         138.8021  139.2581  159.7311 O.3     1  UNL1       -0.3538
     28 C         139.9461  138.4342  160.2434 C.3     1  UNL1        0.1422
     29 C         139.9550  137.9671  161.6688 C.3     1  UNL1        0.0338
@<TRIPOS>BOND
     1    17    18    1
     2    18    16    1
     3    16    10    1
     4    10    11   ar
     5    11    12   ar
     6    12    13   ar
     7    13    14   ar
     8    14    15   ar
     9    15     1    1
    10     1     2    2
    11     2     3    1
    12     3     4    2
    13     4     5    1
    14     5     6    2
    15     6     7    1
    16     7    19    1
    17    19    20    2
    18    19    21   am
    19    21    23    1
    20    23    24    1
    21    24    25    1
    22    25    26    1
    23    26    27    1
    24    27    28    1
    25    28    29    1
    26     7     8    2
    27     8     9    1
    28    15    10   ar
    29     9     1    1
    30     8     4    1
    31    29    24    1
    32    21    22    1
@<TRIPOS>MOLECULE
*****
 29 32 0 0 0
SMALL
GASTEIGER

@<TRIPOS>ATOM
      1 C         142.6966  142.0741  166.0449 C.2     1  UNL1       -0.0164
      2 C         143.2133  142.5470  167.3713 C.2     1  UNL1       -0.0023
      3 C         142.5434  142.1042  168.6382 C.2     1  UNL1        0.0203
      4 C         141.3568  141.1886  168.5788 C.2     1  UNL1        0.1008
      5 N         140.4971  140.5888  169.6518 N.2     1  UNL1       -0.1481
      6 N         139.4491  139.7452  168.9885 N.2     1  UNL1       -0.1436
      7 C         139.6611  139.8236  167.5056 C.2     1  UNL1        0.1537
      8 C         140.8401  140.7157  167.2524 C.2     1  UNL1        0.0255
      9 C         141.5100  141.1585  165.9855 C.3     1  UNL1        0.0560
     10 C         144.2796  141.5793  164.0450 C.ar    1  UNL1        0.0100
     11 C         144.9494  142.0220  162.7781 C.ar    1  UNL1        0.0188
     12 C         144.7062  143.4024  162.2439 C.ar    1  UNL1        0.0986
     13 N         143.7931  144.3401  162.9767 N.ar    1  UNL1       -0.2423
     14 C         143.1233  143.8973  164.2438 C.ar    1  UNL1        0.0983
     15 C         143.3665  142.5169  164.7779 C.ar    1  UNL1        0.0139
     16 C         144.5228  140.1988  164.5792 C.3     1  UNL1        0.1688
     17 C         142.6754  139.1483  163.0847 C.3     1  UNL1        0.1746
     18 O         143.9436  139.0087  163.8734 O.3     1  UNL1       -0.3463
     19 C         138.8385  139.1316  166.4595 C.2     1  UNL1        0.2651
     20 O         137.4116  138.7686  166.7462 O.2     1  UNL1       -0.2684
     21 N         139.4427  138.8024  165.1266 N.am    1  UNL1       -0.2996
     22 H         140.3792  139.0406  164.9384 H       1  UNL1        0.1498
     23 C         138.6201  138.1103  164.0806 C.3     1  UNL1        0.0899
     24 C         138.6198  138.6183  162.6692 C.3     1  UNL1        0.0246
     25 C         139.4317  137.9183  161.6200 C.3     1  UNL1        0.0338
     26 C         139.4316  138.4262  160.2086 C.3     1  UNL1        0.1422
     27 O         138.6194  139.6342  159.8464 O.3     1  UNL1       -0.3538
     28 C         137.8075  140.3342  160.8955 C.3     1  UNL1        0.1422
     29 C         137.8077  139.8263  162.3070 C.3     1  UNL1        0.0338
@<TRIPOS>BOND
     1    17    18    1
     2    18    16    1
     3    16    10    1
     4    10    11   ar
     5    11    12   ar
     6    12    13   ar
     7    13    14   ar
     8    14    15   ar
     9    15     1    1
    10     1     2    2
    11     2     3    1
    12     3     4    2
    13     4     5    1
    14     5     6    2
    15     6     7    1
    16     7    19    1
    17    19    20    2
    18    19    21   am
    19    21    23    1
    20    23    24    1
    21    24    25    1
    22    25    26    1
    23    26    27    1
    24    27    28    1
    25    28    29    1
    26     7     8    2
    27     8     9    1
    28    15    10   ar
    29     9     1    1
    30     8     4    1
    31    29    24    1
    32    21    22    1
@<TRIPOS>MOLECULE
*****
 29 32 0 0 0
SMALL
GASTEIGER

@<TRIPOS>ATOM
      1 C         141.3116  140.0333  165.5367 C.2     1  UNL1       -0.0164
      2 C         139.8244  140.0624  165.3433 C.2     1  UNL1       -0.0023
      3 C         138.9120  139.9848  166.5313 C.2     1  UNL1        0.0203
      4 C         139.4868  139.8780  167.9127 C.2     1  UNL1        0.1008
      5 N         138.8417  139.7858  169.2639 N.2     1  UNL1       -0.1481
      6 N         139.9303  139.6997  170.2922 N.2     1  UNL1       -0.1436
      7 C         141.2481  139.7387  169.5767 C.2     1  UNL1        0.1537
      8 C         140.9739  139.8489  168.1061 C.2     1  UNL1        0.0255
      9 C         141.8863  139.9266  166.9181 C.3     1  UNL1        0.0560
     10 C         142.5480  138.8708  163.5694 C.ar    1  UNL1        0.0100
     11 C         143.4604  138.9484  162.3814 C.ar    1  UNL1        0.0188
     12 C         144.0490  140.2662  161.9725 C.ar    1  UNL1        0.0986
     13 N         143.7251  141.5063  162.7517 N.ar    1  UNL1       -0.2423
     14 C         142.8126  141.4287  163.9398 C.ar    1  UNL1        0.0983
     15 C         142.2241  140.1110  164.3486 C.ar    1  UNL1        0.0139
     16 C         141.9594  137.5530  163.9783 C.3     1  UNL1        0.1688
     17 C         139.9060  137.7875  162.4040 C.3     1  UNL1        0.1746
     18 O         140.8808  136.9234  163.1477 O.3     1  UNL1       -0.3463
     19 C         142.6022  139.6781  170.2190 C.2     1  UNL1        0.2651
     20 O         143.4213  140.9266  170.3616 O.2     1  UNL1       -0.2684
     21 N         143.1374  138.3690  170.7187 N.am    1  UNL1       -0.2996
     22 H         142.5999  137.5495  170.6251 H       1  UNL1        0.1498
     23 C         144.4916  138.3084  171.3610 C.3     1  UNL1        0.0899
     24 C         145.0113  137.0062  171.8940 C.3     1  UNL1        0.0246
     25 C         146.1423  136.9969  172.8793 C.3     1  UNL1        0.0338
     26 C         146.6620  135.6947  173.4124 C.3     1  UNL1        0.1422
     27 O         146.0508  134.4017  172.9601 O.3     1  UNL1       -0.3538
     28 C         144.9198  134.4110  171.9748 C.3     1  UNL1        0.1422
     29 C         144.4001  135.7132  171.4417 C.3     1  UNL1        0.0338
@<TRIPOS>BOND
     1    17    18    1
     2    18    16    1
     3    16    10    1
     4    10    11   ar
     5    11    12   ar
     6    12    13   ar
     7    13    14   ar
     8    14    15   ar
     9    15     1    1
    10     1     2    2
    11     2     3    1
    12     3     4    2
    13     4     5    1
    14     5     6    2
    15     6     7    1
    16     7    19    1
    17    19    20    2
    18    19    21   am
    19    21    23    1
    20    23    24    1
    21    24    25    1
    22    25    26    1
    23    26    27    1
    24    27    28    1
    25    28    29    1
    26     7     8    2
    27     8     9    1
    28    15    10   ar
    29     9     1    1
    30     8     4    1
    31    29    24    1
    32    21    22    1
@<TRIPOS>MOLECULE
*****
 29 32 0 0 0
SMALL
GASTEIGER

@<TRIPOS>ATOM
      1 C         141.3946  141.4781  163.1725 C.2     1  UNL1       -0.0164
      2 C         141.4749  140.8274  161.8234 C.2     1  UNL1       -0.0023
      3 C         140.7468  139.5415  161.5664 C.2     1  UNL1        0.0203
      4 C         139.9384  138.9061  162.6585 C.2     1  UNL1        0.1008
      5 N         139.1195  137.6500  162.7002 N.2     1  UNL1       -0.1481
      6 N         138.5331  137.5244  164.0750 N.2     1  UNL1       -0.1436
      7 C         138.9895  138.7028  164.8831 C.2     1  UNL1        0.1537
      8 C         139.8580  139.5567  164.0077 C.2     1  UNL1        0.0255
      9 C         140.5861  140.8427  164.2646 C.3     1  UNL1        0.0560
     10 C         141.4069  144.0739  163.2809 C.ar    1  UNL1        0.0100
     11 C         142.1349  145.3599  163.5379 C.ar    1  UNL1        0.0188
     12 C         143.5789  145.3362  163.9436 C.ar    1  UNL1        0.0986
     13 N         144.2947  144.0264  164.0922 N.ar    1  UNL1       -0.2423
     14 C         143.5666  142.7404  163.8352 C.ar    1  UNL1        0.0983
     15 C         142.1227  142.7641  163.4295 C.ar    1  UNL1        0.0139
     16 C         139.9629  144.0976  162.8753 C.3     1  UNL1        0.1688
     17 C         138.8238  144.7195  165.1259 C.3     1  UNL1        0.1746
     18 O         138.9802  144.9261  163.6485 O.3     1  UNL1       -0.3463
     19 C         138.6390  138.9788  166.3152 C.2     1  UNL1        0.2651
     20 O         137.3500  138.4648  166.8844 O.2     1  UNL1       -0.2684
     21 N         139.5776  139.7690  167.1782 N.am    1  UNL1       -0.2996
     22 H         140.4237  140.1064  166.8047 H       1  UNL1        0.1498
     23 C         139.2271  140.0450  168.6103 C.3     1  UNL1        0.0899
     24 C         140.1070  140.9320  169.4403 C.3     1  UNL1        0.0246
     25 C         140.2680  142.3789  169.0788 C.3     1  UNL1        0.0338
     26 C         141.1479  143.2660  169.9087 C.3     1  UNL1        0.1422
     27 O         141.8669  142.7062  171.1002 O.3     1  UNL1       -0.3538
     28 C         141.7060  141.2594  171.4617 C.3     1  UNL1        0.1422
     29 C         140.8261  140.3722  170.6317 C.3     1  UNL1        0.0338
@<TRIPOS>BOND
     1    17    18    1
     2    18    16    1
     3    16    10    1
     4    10    11   ar
     5    11    12   ar
     6    12    13   ar
     7    13    14   ar
     8    14    15   ar
     9    15     1    1
    10     1     2    2
    11     2     3    1
    12     3     4    2
    13     4     5    1
    14     5     6    2
    15     6     7    1
    16     7    19    1
    17    19    20    2
    18    19    21   am
    19    21    23    1
    20    23    24    1
    21    24    25    1
    22    25    26    1
    23    26    27    1
    24    27    28    1
    25    28    29    1
    26     7     8    2
    27     8     9    1
    28    15    10   ar
    29     9     1    1
    30     8     4    1
    31    29    24    1
    32    21    22    1
@<TRIPOS>MOLECULE
*****
 29 32 0 0 0
SMALL
GASTEIGER

@<TRIPOS>ATOM
      1 C         142.9377  138.9636  165.2955 C.2     1  UNL1       -0.0164
      2 C         143.6469  137.9646  166.1610 C.2     1  UNL1       -0.0023
      3 C         143.6162  138.1099  167.6536 C.2     1  UNL1        0.0203
      4 C         142.8762  139.2541  168.2807 C.2     1  UNL1        0.1008
      5 N         142.6722  139.6534  169.7122 N.2     1  UNL1       -0.1481
      6 N         141.8369  140.8991  169.7313 N.2     1  UNL1       -0.1436
      7 C         141.5247  141.2697  168.3117 C.2     1  UNL1        0.1537
      8 C         142.1670  140.2530  167.4152 C.2     1  UNL1        0.0255
      9 C         142.1978  140.1077  165.9226 C.3     1  UNL1        0.0560
     10 C         144.0455  139.4925  163.0057 C.ar    1  UNL1        0.0100
     11 C         144.0763  139.3473  161.5131 C.ar    1  UNL1        0.0188
     12 C         143.0299  138.5279  160.8175 C.ar    1  UNL1        0.0986
     13 N         141.9528  137.8537  161.6146 N.ar    1  UNL1       -0.2423
     14 C         141.9221  137.9989  163.1073 C.ar    1  UNL1        0.0983
     15 C         142.9684  138.8183  163.8028 C.ar    1  UNL1        0.0139
     16 C         145.0919  140.3119  163.7013 C.3     1  UNL1        0.1688
     17 C         144.8903  142.6934  162.6825 C.3     1  UNL1        0.1746
     18 O         145.7161  141.4823  163.0009 O.3     1  UNL1       -0.3463
     19 C         140.7127  142.4498  167.8668 C.2     1  UNL1        0.2651
     20 O         140.3014  143.4950  168.8609 O.2     1  UNL1       -0.2684
     21 N         140.3120  142.5847  166.4276 N.am    1  UNL1       -0.2996
     22 H         140.5819  141.8987  165.7751 H       1  UNL1        0.1498
     23 C         139.5000  143.7648  165.9826 C.3     1  UNL1        0.0899
     24 C         139.1334  143.9206  164.5364 C.3     1  UNL1        0.0246
     25 C         138.1476  142.9814  163.9072 C.3     1  UNL1        0.0338
     26 C         137.7809  143.1371  162.4610 C.3     1  UNL1        0.1422
     27 O         138.4002  144.2322  161.6441 O.3     1  UNL1       -0.3538
     28 C         139.3860  145.1714  162.2733 C.3     1  UNL1        0.1422
     29 C         139.7527  145.0157  163.7195 C.3     1  UNL1        0.0338
@<TRIPOS>BOND
     1    17    18    1
     2    18    16    1
     3    16    10    1
     4    10    11   ar
     5    11    12   ar
     6    12    13   ar
     7    13    14   ar
     8    14    15   ar
     9    15     1    1
    10     1     2    2
    11     2     3    1
    12     3     4    2
    13     4     5    1
    14     5     6    2
    15     6     7    1
    16     7    19    1
    17    19    20    2
    18    19    21   am
    19    21    23    1
    20    23    24    1
    21    24    25    1
    22    25    26    1
    23    26    27    1
    24    27    28    1
    25    28    29    1
    26     7     8    2
    27     8     9    1
    28    15    10   ar
    29     9     1    1
    30     8     4    1
    31    29    24    1
    32    21    22    1
@<TRIPOS>MOLECULE
*****
 29 32 0 0 0
SMALL
GASTEIGER

@<TRIPOS>ATOM
      1 C         140.6989  142.6772  161.6028 C.2     1  UNL1       -0.0164
      2 C         140.2507  142.9063  160.1898 C.2     1  UNL1       -0.0023
      3 C         139.1923  142.0305  159.5875 C.2     1  UNL1        0.0203
      4 C         138.5823  140.9256  160.3980 C.2     1  UNL1        0.1008
      5 N         137.5276  139.9088  160.0756 N.2     1  UNL1       -0.1481
      6 N         137.3242  139.0512  161.2894 N.2     1  UNL1       -0.1436
      7 C         138.2530  139.5381  162.3619 C.2     1  UNL1        0.1537
      8 C         139.0306  140.6965  161.8110 C.2     1  UNL1        0.0255
      9 C         140.0889  141.5722  162.4134 C.3     1  UNL1        0.0560
     10 C         141.3808  144.6018  163.2094 C.ar    1  UNL1        0.0100
     11 C         142.4390  145.4776  163.8118 C.ar    1  UNL1        0.0188
     12 C         143.8739  145.3046  163.4102 C.ar    1  UNL1        0.0986
     13 N         144.2505  144.2558  162.4061 N.ar    1  UNL1       -0.2423
     14 C         143.1921  143.3800  161.8036 C.ar    1  UNL1        0.0983
     15 C         141.7573  143.5530  162.2053 C.ar    1  UNL1        0.0139
     16 C         139.9459  144.7748  163.6110 C.3     1  UNL1        0.1688
     17 C         139.9363  143.2733  165.7313 C.3     1  UNL1        0.1746
     18 O         139.5313  144.5375  165.0329 O.3     1  UNL1       -0.3463
     19 C         138.3817  138.9668  163.7428 C.2     1  UNL1        0.2651
     20 O         138.8674  137.5601  163.9304 O.2     1  UNL1       -0.2684
     21 N         138.0248  139.8023  164.9364 N.am    1  UNL1       -0.2996
     22 H         137.7061  140.7256  164.8134 H       1  UNL1        0.1498
     23 C         138.1535  139.2310  166.3174 C.3     1  UNL1        0.0899
     24 C         139.3255  139.6028  167.1766 C.3     1  UNL1        0.0246
     25 C         139.1176  139.9416  168.6229 C.3     1  UNL1        0.0338
     26 C         140.2895  140.3134  169.4822 C.3     1  UNL1        0.1422
     27 O         141.6694  140.3464  168.8951 O.3     1  UNL1       -0.3538
     28 C         141.8774  140.0076  167.4488 C.3     1  UNL1        0.1422
     29 C         140.7054  139.6358  166.5895 C.3     1  UNL1        0.0338
@<TRIPOS>BOND
     1    17    18    1
     2    18    16    1
     3    16    10    1
     4    10    11   ar
     5    11    12   ar
     6    12    13   ar
     7    13    14   ar
     8    14    15   ar
     9    15     1    1
    10     1     2    2
    11     2     3    1
    12     3     4    2
    13     4     5    1
    14     5     6    2
    15     6     7    1
    16     7    19    1
    17    19    20    2
    18    19    21   am
    19    21    23    1
    20    23    24    1
    21    24    25    1
    22    25    26    1
    23    26    27    1
    24    27    28    1
    25    28    29    1
    26     7     8    2
    27     8     9    1
    28    15    10   ar
    29     9     1    1
    30     8     4    1
    31    29    24    1
    32    21    22    1
