@<TRIPOS>MOLECULE
*****
 34 38 0 0 0
SMALL
GASTEIGER

@<TRIPOS>ATOM
      1 C         143.2417  141.7104  161.9033 C.ar    1  UNL1        0.1317
      2 C         144.2920  142.7455  161.6286 C.ar    1  UNL1        0.0346
      3 C         144.9270  142.8281  160.2721 C.ar    1  UNL1        0.0121
      4 C         144.5115  141.8758  159.1903 C.ar    1  UNL1        0.1076
      5 C         143.4612  140.8408  159.4650 C.ar    1  UNL1        0.1080
      6 N         142.8263  140.7581  160.8215 N.ar    1  UNL1       -0.2289
      7 C         140.0672  141.2971  168.6857 C.3     1  UNL1        0.0353
      8 C         139.8339  140.2082  167.6808 C.3     1  UNL1        0.0053
      9 C         140.4688  140.2909  166.3243 C.3     1  UNL1        0.0274
     10 C         141.3370  141.4624  165.9728 C.3     1  UNL1        0.0961
     11 C         142.2052  142.6340  165.6212 C.3     1  UNL1        0.0487
     12 C         142.8401  142.7166  164.2647 C.3     1  UNL1        0.0946
     13 N         142.6068  141.6278  163.2598 N.pl3   1  UNL1       -0.2931
     14 C         141.7386  140.4562  163.6114 C.3     1  UNL1        0.0946
     15 C         141.1037  140.3736  164.9678 C.3     1  UNL1        0.0487
     16 O         141.5703  142.5513  166.9777 O.3     1  UNL1       -0.3584
     17 C         140.9354  142.4686  168.3341 C.3     1  UNL1        0.1422
     18 C         139.4323  141.2144  170.0422 C.3     1  UNL1        0.0442
     19 O         141.0562  141.8995  171.9511 O.co2   1  UNL1       -0.5492
     20 C         139.8381  142.1753  171.1201 C.2     1  UNL1        0.0504
     21 O         139.0261  143.4121  171.3671 O.co2   1  UNL1       -0.5492
     22 C         145.1464  141.9585  157.8338 C.2     1  UNL1        0.3767
     23 N         146.5305  142.4547  157.5369 N.2     1  UNL1       -0.0308
     24 C         146.7482  142.3624  156.0556 C.2     1  UNL1        0.2320
     25 C         147.9228  142.7107  155.1902 C.2     1  UNL1        0.0537
     26 C         147.8479  142.5056  153.7062 C.2     1  UNL1        0.0714
     27 C         146.5984  141.9522  153.0877 C.2     1  UNL1       -0.0133
     28 C         145.4238  141.6039  153.9531 C.3     1  UNL1        0.1037
     29 C         145.4987  141.8090  155.4371 C.2     1  UNL1        0.2178
     30 N         144.5088  141.5594  156.5361 N.2     1  UNL1       -0.0347
     31 C         149.0225  142.8539  152.8407 C.3     1  UNL1        0.4184
     32 F         150.1970  143.2022  151.9752 F       1  UNL1       -0.1659
     33 F         148.9673  144.2688  153.3353 F       1  UNL1       -0.1659
     34 F         149.0776  141.4389  152.3460 F       1  UNL1       -0.1659
@<TRIPOS>UNITY_ATOM_ATTR
19 1
charge -1
@<TRIPOS>BOND
     1    19    20   ar
     2    20    21   ar
     3    20    18    1
     4    18     7    1
     5     7     8    1
     6     8     9    1
     7     9    10    1
     8    10    11    1
     9    11    12    1
    10    12    13    1
    11    13     1    1
    12     1     2   ar
    13     2     3   ar
    14     3     4   ar
    15     4    22    1
    16    22    23    2
    17    23    24    1
    18    24    25    2
    19    25    26    1
    20    26    31    1
    21    31    32    1
    22    31    33    1
    23    31    34    1
    24    26    27    2
    25    27    28    1
    26    28    29    1
    27    29    30    2
    28     4     5   ar
    29     5     6   ar
    30    13    14    1
    31    14    15    1
    32    10    16    1
    33    16    17    1
    34    17     7    1
    35    15    10    1
    36     6     1   ar
    37    30    22    1
    38    29    24    1
@<TRIPOS>MOLECULE
*****
 34 38 0 0 0
SMALL
GASTEIGER

@<TRIPOS>ATOM
      1 C         141.5966  138.6463  160.4022 C.ar    1  UNL1        0.1317
      2 C         142.8668  138.7325  161.1953 C.ar    1  UNL1        0.0346
      3 C         142.8619  139.3727  162.5519 C.ar    1  UNL1        0.0121
      4 C         141.5869  139.9267  163.1152 C.ar    1  UNL1        0.1076
      5 C         140.3168  139.8404  162.3221 C.ar    1  UNL1        0.1080
      6 N         140.3216  139.2003  160.9656 N.ar    1  UNL1       -0.2289
      7 C         141.6207  135.4455  153.6195 C.3     1  UNL1        0.0353
      8 C         140.4290  136.2364  154.0714 C.3     1  UNL1        0.0053
      9 C         140.4242  136.8766  155.4279 C.3     1  UNL1        0.0274
     10 C         141.6111  136.7258  156.3326 C.3     1  UNL1        0.0961
     11 C         142.7980  136.5751  157.2373 C.3     1  UNL1        0.0487
     12 C         142.7931  137.2152  158.5938 C.3     1  UNL1        0.0946
     13 N         141.6014  138.0062  159.0457 N.pl3   1  UNL1       -0.2931
     14 C         140.4145  138.1569  158.1410 C.3     1  UNL1        0.0946
     15 C         140.4194  137.5168  156.7844 C.3     1  UNL1        0.0487
     16 O         142.8028  135.9349  155.8808 O.3     1  UNL1       -0.3584
     17 C         142.8076  135.2947  154.5242 C.3     1  UNL1        0.1422
     18 C         141.6256  134.8053  152.2630 C.3     1  UNL1        0.0442
     19 O         139.9197  132.8674  151.9720 O.co2   1  UNL1       -0.5492
     20 C         141.3352  133.3403  152.1240 C.2     1  UNL1        0.0504
     21 O         142.4601  132.3482  152.1370 O.co2   1  UNL1       -0.5492
     22 C         141.5821  140.5668  164.4718 C.2     1  UNL1        0.3767
     23 N         140.3683  140.8712  165.2988 N.2     1  UNL1       -0.0308
     24 C         140.8262  141.5075  166.5776 C.2     1  UNL1        0.2320
     25 C         140.0736  142.0174  167.7707 C.2     1  UNL1        0.0537
     26 C         140.8179  142.6163  168.9271 C.2     1  UNL1        0.0714
     27 C         142.3148  142.7052  168.8905 C.2     1  UNL1       -0.0133
     28 C         143.0674  142.1952  167.6974 C.3     1  UNL1        0.1037
     29 C         142.3231  141.5964  166.5410 C.2     1  UNL1        0.2178
     30 N         142.7903  141.0150  165.2395 N.2     1  UNL1       -0.0347
     31 C         140.0652  143.1262  170.1203 C.3     1  UNL1        0.4184
     32 F         139.3126  143.6361  171.3133 F       1  UNL1       -0.1659
     33 F         139.3488  141.8130  170.2296 F       1  UNL1       -0.1659
     34 F         140.7816  144.4395  170.0109 F       1  UNL1       -0.1659
@<TRIPOS>UNITY_ATOM_ATTR
19 1
charge -1
@<TRIPOS>BOND
     1    19    20   ar
     2    20    21   ar
     3    20    18    1
     4    18     7    1
     5     7     8    1
     6     8     9    1
     7     9    10    1
     8    10    11    1
     9    11    12    1
    10    12    13    1
    11    13     1    1
    12     1     2   ar
    13     2     3   ar
    14     3     4   ar
    15     4    22    1
    16    22    23    2
    17    23    24    1
    18    24    25    2
    19    25    26    1
    20    26    31    1
    21    31    32    1
    22    31    33    1
    23    31    34    1
    24    26    27    2
    25    27    28    1
    26    28    29    1
    27    29    30    2
    28     4     5   ar
    29     5     6   ar
    30    13    14    1
    31    14    15    1
    32    10    16    1
    33    16    17    1
    34    17     7    1
    35    15    10    1
    36     6     1   ar
    37    30    22    1
    38    29    24    1
@<TRIPOS>MOLECULE
*****
 34 38 0 0 0
SMALL
GASTEIGER

@<TRIPOS>ATOM
      1 C         140.7489  140.0042  163.9847 C.ar    1  UNL1        0.1317
      2 C         141.1783  141.3878  163.5959 C.ar    1  UNL1        0.0346
      3 C         141.9394  141.6068  162.3221 C.ar    1  UNL1        0.0121
      4 C         142.2712  140.4421  161.4370 C.ar    1  UNL1        0.1076
      5 C         141.8419  139.0585  161.8258 C.ar    1  UNL1        0.1080
      6 N         141.0807  138.8396  163.0996 N.ar    1  UNL1       -0.2289
      7 C         136.9432  138.9094  170.3540 C.3     1  UNL1        0.0353
      8 C         138.1132  139.8477  170.3313 C.3     1  UNL1        0.0053
      9 C         138.8744  140.0666  169.0574 C.3     1  UNL1        0.0274
     10 C         138.4655  139.3473  167.8063 C.3     1  UNL1        0.0961
     11 C         138.0565  138.6280  166.5552 C.3     1  UNL1        0.0487
     12 C         138.8177  138.8470  165.2813 C.3     1  UNL1        0.0946
     13 N         139.9878  139.7853  165.2586 N.pl3   1  UNL1       -0.2931
     14 C         140.3967  140.5045  166.5097 C.3     1  UNL1        0.0946
     15 C         139.6355  140.2856  167.7835 C.3     1  UNL1        0.0487
     16 O         137.2954  138.4091  167.8290 O.3     1  UNL1       -0.3584
     17 C         136.5342  138.1901  169.1029 C.3     1  UNL1        0.1422
     18 C         136.1820  138.6904  171.6278 C.3     1  UNL1        0.0442
     19 O         137.2159  136.3466  172.0609 O.co2   1  UNL1       -0.5492
     20 C         136.0787  137.3130  172.2125 C.2     1  UNL1        0.0504
     21 O         134.8382  136.9018  172.9488 O.co2   1  UNL1       -0.5492
     22 C         143.0324  140.6611  160.1632 C.2     1  UNL1        0.3767
     23 N         143.0036  139.7725  158.9550 N.2     1  UNL1       -0.0308
     24 C         143.9094  140.3693  157.9190 C.2     1  UNL1        0.2320
     25 C         144.2743  139.9302  156.5319 C.2     1  UNL1        0.0537
     26 C         145.2277  140.7486  155.7126 C.2     1  UNL1        0.0714
     27 C         145.8163  142.0060  156.2805 C.2     1  UNL1       -0.0133
     28 C         145.4514  142.4451  157.6675 C.3     1  UNL1        0.1037
     29 C         144.4980  141.6268  158.4868 C.2     1  UNL1        0.2178
     30 N         143.9559  141.8071  159.8737 N.2     1  UNL1       -0.0347
     31 C         145.5926  140.3095  154.3255 C.3     1  UNL1        0.4184
     32 F         145.9575  139.8704  152.9384 F       1  UNL1       -0.1659
     33 F         145.1412  138.9159  154.6479 F       1  UNL1       -0.1659
     34 F         146.0441  141.7031  154.0031 F       1  UNL1       -0.1659
@<TRIPOS>UNITY_ATOM_ATTR
19 1
charge -1
@<TRIPOS>BOND
     1    19    20   ar
     2    20    21   ar
     3    20    18    1
     4    18     7    1
     5     7     8    1
     6     8     9    1
     7     9    10    1
     8    10    11    1
     9    11    12    1
    10    12    13    1
    11    13     1    1
    12     1     2   ar
    13     2     3   ar
    14     3     4   ar
    15     4    22    1
    16    22    23    2
    17    23    24    1
    18    24    25    2
    19    25    26    1
    20    26    31    1
    21    31    32    1
    22    31    33    1
    23    31    34    1
    24    26    27    2
    25    27    28    1
    26    28    29    1
    27    29    30    2
    28     4     5   ar
    29     5     6   ar
    30    13    14    1
    31    14    15    1
    32    10    16    1
    33    16    17    1
    34    17     7    1
    35    15    10    1
    36     6     1   ar
    37    30    22    1
    38    29    24    1
@<TRIPOS>MOLECULE
*****
 34 38 0 0 0
SMALL
GASTEIGER

@<TRIPOS>ATOM
      1 C         141.0394  141.7056  155.3385 C.ar    1  UNL1        0.1317
      2 C         139.9731  140.7852  155.8541 C.ar    1  UNL1        0.0346
      3 C         140.2681  139.3265  156.0420 C.ar    1  UNL1        0.0121
      4 C         141.6293  138.7883  155.7142 C.ar    1  UNL1        0.1076
      5 C         142.6955  139.7087  155.1985 C.ar    1  UNL1        0.1080
      6 N         142.4005  141.1674  155.0107 N.ar    1  UNL1       -0.2289
      7 C         139.5646  148.9990  154.3994 C.3     1  UNL1        0.0353
      8 C         138.9174  148.2412  155.5205 C.3     1  UNL1        0.0053
      9 C         139.2124  146.7826  155.7083 C.3     1  UNL1        0.0274
     10 C         140.1545  146.0816  154.7750 C.3     1  UNL1        0.0961
     11 C         141.0966  145.3807  153.8417 C.3     1  UNL1        0.0487
     12 C         141.3916  143.9220  154.0295 C.3     1  UNL1        0.0946
     13 N         140.7444  143.1643  155.1507 N.pl3   1  UNL1       -0.2931
     14 C         139.8023  143.8652  156.0840 C.3     1  UNL1        0.0946
     15 C         139.5074  145.3239  155.8961 C.3     1  UNL1        0.0487
     16 O         140.8016  146.8394  153.6539 O.3     1  UNL1       -0.3584
     17 C         140.5067  148.2981  153.4661 C.3     1  UNL1        0.1422
     18 C         139.2696  150.4577  154.2115 C.3     1  UNL1        0.0442
     19 O         141.4311  151.7342  154.8814 O.co2   1  UNL1       -0.5492
     20 C         139.9641  151.4789  155.0628 C.2     1  UNL1        0.0504
     21 O         139.1917  152.2450  156.0954 O.co2   1  UNL1       -0.5492
     22 C         141.9242  137.3296  155.9020 C.2     1  UNL1        0.3767
     23 N         142.9939  136.7524  156.7809 N.2     1  UNL1       -0.0308
     24 C         142.9321  135.2581  156.6660 C.2     1  UNL1        0.2320
     25 C         143.7415  134.1681  157.3037 C.2     1  UNL1        0.0537
     26 C         143.4429  132.7317  156.9913 C.2     1  UNL1        0.0714
     27 C         142.3350  132.3853  156.0413 C.2     1  UNL1       -0.0133
     28 C         141.5256  133.4753  155.4037 C.3     1  UNL1        0.1037
     29 C         141.8241  134.9117  155.7160 C.2     1  UNL1        0.2178
     30 N         141.2012  136.1920  155.2438 N.2     1  UNL1       -0.0347
     31 C         144.2524  131.6415  157.6290 C.3     1  UNL1        0.4184
     32 F         145.0618  130.5515  158.2666 F       1  UNL1       -0.1659
     33 F         145.2383  132.6602  158.1189 F       1  UNL1       -0.1659
     34 F         143.2664  130.6228  157.1391 F       1  UNL1       -0.1659
@<TRIPOS>UNITY_ATOM_ATTR
19 1
charge -1
@<TRIPOS>BOND
     1    19    20   ar
     2    20    21   ar
     3    20    18    1
     4    18     7    1
     5     7     8    1
     6     8     9    1
     7     9    10    1
     8    10    11    1
     9    11    12    1
    10    12    13    1
    11    13     1    1
    12     1     2   ar
    13     2     3   ar
    14     3     4   ar
    15     4    22    1
    16    22    23    2
    17    23    24    1
    18    24    25    2
    19    25    26    1
    20    26    31    1
    21    31    32    1
    22    31    33    1
    23    31    34    1
    24    26    27    2
    25    27    28    1
    26    28    29    1
    27    29    30    2
    28     4     5   ar
    29     5     6   ar
    30    13    14    1
    31    14    15    1
    32    10    16    1
    33    16    17    1
    34    17     7    1
    35    15    10    1
    36     6     1   ar
    37    30    22    1
    38    29    24    1
@<TRIPOS>MOLECULE
*****
 34 38 0 0 0
SMALL
GASTEIGER

@<TRIPOS>ATOM
      1 C         141.3814  139.8869  155.4770 C.ar    1  UNL1        0.1317
      2 C         141.7676  140.8777  156.5349 C.ar    1  UNL1        0.0346
      3 C         141.5095  142.3400  156.3230 C.ar    1  UNL1        0.0121
      4 C         140.8653  142.8117  155.0532 C.ar    1  UNL1        0.1076
      5 C         140.4791  141.8209  153.9953 C.ar    1  UNL1        0.1080
      6 N         140.7372  140.3586  154.2071 N.ar    1  UNL1       -0.2289
      7 C         142.6717  132.5751  156.5364 C.3     1  UNL1        0.0353
      8 C         141.6656  133.0191  155.5163 C.3     1  UNL1        0.0053
      9 C         141.4075  134.4814  155.3044 C.3     1  UNL1        0.0274
     10 C         142.1556  135.4998  156.1126 C.3     1  UNL1        0.0961
     11 C         142.9036  136.5182  156.9208 C.3     1  UNL1        0.0487
     12 C         142.6456  137.9806  156.7089 C.3     1  UNL1        0.0946
     13 N         141.6395  138.4246  155.6888 N.pl3   1  UNL1       -0.2931
     14 C         140.8914  137.4062  154.8807 C.3     1  UNL1        0.0946
     15 C         141.1495  135.9438  155.0925 C.3     1  UNL1        0.0487
     16 O         143.1617  135.0559  157.1327 O.3     1  UNL1       -0.3584
     17 C         143.4197  133.5935  157.3446 C.3     1  UNL1        0.1422
     18 C         142.9297  131.1127  156.7483 C.3     1  UNL1        0.0442
     19 O         144.9763  130.5454  158.2449 O.co2   1  UNL1       -0.5492
     20 C         144.3366  130.6122  156.8897 C.2     1  UNL1        0.0504
     21 O         145.1040  130.1784  155.6760 O.co2   1  UNL1       -0.5492
     22 C         140.6072  144.2740  154.8413 C.2     1  UNL1        0.3767
     23 N         139.7772  145.1596  155.7226 N.2     1  UNL1       -0.0308
     24 C         139.7908  146.5405  155.1369 C.2     1  UNL1        0.2320
     25 C         139.1481  147.8230  155.5751 C.2     1  UNL1        0.0537
     26 C         139.3439  149.0733  154.7699 C.2     1  UNL1        0.0714
     27 C         140.1824  149.0411  153.5266 C.2     1  UNL1       -0.0133
     28 C         140.8252  147.7586  153.0884 C.3     1  UNL1        0.1037
     29 C         140.6294  146.5083  153.8936 C.2     1  UNL1        0.2178
     30 N         141.1339  145.1076  153.7109 N.2     1  UNL1       -0.0347
     31 C         138.7011  150.3559  155.2081 C.3     1  UNL1        0.4184
     32 F         138.0584  151.6384  155.6462 F       1  UNL1       -0.1659
     33 F         138.4242  149.7569  156.5551 F       1  UNL1       -0.1659
     34 F         138.9781  150.9549  153.8611 F       1  UNL1       -0.1659
@<TRIPOS>UNITY_ATOM_ATTR
19 1
charge -1
@<TRIPOS>BOND
     1    19    20   ar
     2    20    21   ar
     3    20    18    1
     4    18     7    1
     5     7     8    1
     6     8     9    1
     7     9    10    1
     8    10    11    1
     9    11    12    1
    10    12    13    1
    11    13     1    1
    12     1     2   ar
    13     2     3   ar
    14     3     4   ar
    15     4    22    1
    16    22    23    2
    17    23    24    1
    18    24    25    2
    19    25    26    1
    20    26    31    1
    21    31    32    1
    22    31    33    1
    23    31    34    1
    24    26    27    2
    25    27    28    1
    26    28    29    1
    27    29    30    2
    28     4     5   ar
    29     5     6   ar
    30    13    14    1
    31    14    15    1
    32    10    16    1
    33    16    17    1
    34    17     7    1
    35    15    10    1
    36     6     1   ar
    37    30    22    1
    38    29    24    1
@<TRIPOS>MOLECULE
*****
 34 38 0 0 0
SMALL
GASTEIGER

@<TRIPOS>ATOM
      1 C         141.2020  143.7965  160.4527 C.ar    1  UNL1        0.1317
      2 C         141.8275  144.5466  161.5912 C.ar    1  UNL1        0.0346
      3 C         141.8655  143.9360  162.9608 C.ar    1  UNL1        0.0121
      4 C         141.2779  142.5754  163.1920 C.ar    1  UNL1        0.1076
      5 C         140.6524  141.8254  162.0535 C.ar    1  UNL1        0.1080
      6 N         140.6144  142.4359  160.6839 N.ar    1  UNL1       -0.2289
      7 C         141.0120  146.8491  153.6047 C.3     1  UNL1        0.0353
      8 C         141.9142  145.6831  153.8813 C.3     1  UNL1        0.0053
      9 C         141.9521  145.0726  155.2509 C.3     1  UNL1        0.0274
     10 C         141.0880  145.6280  156.3439 C.3     1  UNL1        0.0961
     11 C         140.2238  146.1835  157.4369 C.3     1  UNL1        0.0487
     12 C         140.2618  145.5730  158.8065 C.3     1  UNL1        0.0946
     13 N         141.1640  144.4070  159.0831 N.pl3   1  UNL1       -0.2931
     14 C         142.0281  143.8515  157.9902 C.3     1  UNL1        0.0946
     15 C         141.9901  144.4621  156.6206 C.3     1  UNL1        0.0487
     16 O         140.1858  146.7940  156.0673 O.3     1  UNL1       -0.3584
     17 C         140.1479  147.4045  154.6977 C.3     1  UNL1        0.1422
     18 C         140.9740  147.4596  152.2351 C.3     1  UNL1        0.0442
     19 O         140.1416  149.9061  151.9669 O.co2   1  UNL1       -0.5492
     20 C         141.2681  148.9196  152.0563 C.2     1  UNL1        0.0504
     21 O         142.6886  149.3931  151.9670 O.co2   1  UNL1       -0.5492
     22 C         141.3159  141.9649  164.5616 C.2     1  UNL1        0.3767
     23 N         142.5388  141.7775  165.4097 N.2     1  UNL1       -0.0308
     24 C         142.1164  141.1313  166.6958 C.2     1  UNL1        0.2320
     25 C         142.8913  140.7086  167.9086 C.2     1  UNL1        0.0537
     26 C         142.1822  140.0739  169.0680 C.2     1  UNL1        0.0714
     27 C         140.6982  139.8621  169.0147 C.2     1  UNL1       -0.0133
     28 C         139.9233  140.2848  167.8020 C.3     1  UNL1        0.1037
     29 C         140.6324  140.9195  166.6426 C.2     1  UNL1        0.2178
     30 N         140.1377  141.4347  165.3235 N.2     1  UNL1       -0.0347
     31 C         142.9571  139.6511  170.2808 C.3     1  UNL1        0.4184
     32 F         143.7319  139.2283  171.4936 F       1  UNL1       -0.1659
     33 F         142.3201  138.2947  170.2149 F       1  UNL1       -0.1659
     34 F         143.5941  141.0075  170.3468 F       1  UNL1       -0.1659
@<TRIPOS>UNITY_ATOM_ATTR
19 1
charge -1
@<TRIPOS>BOND
     1    19    20   ar
     2    20    21   ar
     3    20    18    1
     4    18     7    1
     5     7     8    1
     6     8     9    1
     7     9    10    1
     8    10    11    1
     9    11    12    1
    10    12    13    1
    11    13     1    1
    12     1     2   ar
    13     2     3   ar
    14     3     4   ar
    15     4    22    1
    16    22    23    2
    17    23    24    1
    18    24    25    2
    19    25    26    1
    20    26    31    1
    21    31    32    1
    22    31    33    1
    23    31    34    1
    24    26    27    2
    25    27    28    1
    26    28    29    1
    27    29    30    2
    28     4     5   ar
    29     5     6   ar
    30    13    14    1
    31    14    15    1
    32    10    16    1
    33    16    17    1
    34    17     7    1
    35    15    10    1
    36     6     1   ar
    37    30    22    1
    38    29    24    1
@<TRIPOS>MOLECULE
*****
 34 38 0 0 0
SMALL
GASTEIGER

@<TRIPOS>ATOM
      1 C         141.5085  137.1209  157.0993 C.ar    1  UNL1        0.1317
      2 C         142.5889  137.7826  157.9024 C.ar    1  UNL1        0.0346
      3 C         142.2660  138.9717  158.7577 C.ar    1  UNL1        0.0121
      4 C         140.8628  139.4992  158.8101 C.ar    1  UNL1        0.1076
      5 C         139.7824  138.8374  158.0070 C.ar    1  UNL1        0.1080
      6 N         140.1053  137.6483  157.1516 N.ar    1  UNL1       -0.2289
      7 C         143.1230  131.1752  152.8224 C.3     1  UNL1        0.0353
      8 C         143.7537  131.3190  154.1757 C.3     1  UNL1        0.0053
      9 C         143.4308  132.5082  155.0310 C.3     1  UNL1        0.0274
     10 C         142.4772  133.5534  154.5331 C.3     1  UNL1        0.0961
     11 C         141.5236  134.5987  154.0352 C.3     1  UNL1        0.0487
     12 C         141.2007  135.7879  154.8906 C.3     1  UNL1        0.0946
     13 N         141.8314  135.9317  156.2439 N.pl3   1  UNL1       -0.2931
     14 C         142.7850  134.8864  156.7418 C.3     1  UNL1        0.0946
     15 C         143.1079  133.6973  155.8864 C.3     1  UNL1        0.0487
     16 O         141.8465  133.4096  153.1798 O.3     1  UNL1       -0.3584
     17 C         142.1694  132.2204  152.3245 C.3     1  UNL1        0.1422
     18 C         143.4459  129.9860  151.9670 C.3     1  UNL1        0.0442
     19 O         145.4350  128.3619  152.3614 O.co2   1  UNL1       -0.5492
     20 C         144.0022  128.7413  152.5922 C.2     1  UNL1        0.0504
     21 O         143.1258  127.8758  153.4483 O.co2   1  UNL1       -0.5492
     22 C         140.5399  140.6883  159.6654 C.2     1  UNL1        0.3767
     23 N         140.0513  140.6481  161.0831 N.2     1  UNL1       -0.0308
     24 C         139.8583  142.0614  161.5472 C.2     1  UNL1        0.2320
     25 C         139.3941  142.6343  162.8534 C.2     1  UNL1        0.0537
     26 C         139.2991  144.1210  163.0287 C.2     1  UNL1        0.0714
     27 C         139.6684  145.0347  161.8979 C.2     1  UNL1       -0.0133
     28 C         140.1326  144.4617  160.5917 C.3     1  UNL1        0.1037
     29 C         140.2276  142.9751  160.4164 C.2     1  UNL1        0.2178
     30 N         140.6488  142.1265  159.2534 N.2     1  UNL1       -0.0347
     31 C         138.8348  144.6940  164.3349 C.3     1  UNL1        0.4184
     32 F         138.3705  145.2670  165.6411 F       1  UNL1       -0.1659
     33 F         137.4172  144.3572  163.9788 F       1  UNL1       -0.1659
     34 F         140.2524  145.0308  164.6911 F       1  UNL1       -0.1659
@<TRIPOS>UNITY_ATOM_ATTR
19 1
charge -1
@<TRIPOS>BOND
     1    19    20   ar
     2    20    21   ar
     3    20    18    1
     4    18     7    1
     5     7     8    1
     6     8     9    1
     7     9    10    1
     8    10    11    1
     9    11    12    1
    10    12    13    1
    11    13     1    1
    12     1     2   ar
    13     2     3   ar
    14     3     4   ar
    15     4    22    1
    16    22    23    2
    17    23    24    1
    18    24    25    2
    19    25    26    1
    20    26    31    1
    21    31    32    1
    22    31    33    1
    23    31    34    1
    24    26    27    2
    25    27    28    1
    26    28    29    1
    27    29    30    2
    28     4     5   ar
    29     5     6   ar
    30    13    14    1
    31    14    15    1
    32    10    16    1
    33    16    17    1
    34    17     7    1
    35    15    10    1
    36     6     1   ar
    37    30    22    1
    38    29    24    1
@<TRIPOS>MOLECULE
*****
 34 38 0 0 0
SMALL
GASTEIGER

@<TRIPOS>ATOM
      1 C         142.1682  141.0107  163.8315 C.ar    1  UNL1        0.1317
      2 C         140.8048  141.6117  163.6594 C.ar    1  UNL1        0.0346
      3 C         140.4716  142.3697  162.4087 C.ar    1  UNL1        0.0121
      4 C         141.5020  142.5268  161.3300 C.ar    1  UNL1        0.1076
      5 C         142.8655  141.9258  161.5021 C.ar    1  UNL1        0.1080
      6 N         143.1986  141.1678  162.7529 N.ar    1  UNL1       -0.2289
      7 C         143.8338  137.2207  170.0855 C.3     1  UNL1        0.0353
      8 C         142.8764  138.3741  170.1400 C.3     1  UNL1        0.0053
      9 C         142.5433  139.1321  168.8892 C.3     1  UNL1        0.0274
     10 C         143.1676  138.7367  167.5839 C.3     1  UNL1        0.0961
     11 C         143.7918  138.3413  166.2786 C.3     1  UNL1        0.0487
     12 C         143.4587  139.0993  165.0278 C.3     1  UNL1        0.0946
     13 N         142.5013  140.2527  165.0823 N.pl3   1  UNL1       -0.2931
     14 C         141.8771  140.6481  166.3876 C.3     1  UNL1        0.0946
     15 C         142.2102  139.8901  167.6384 C.3     1  UNL1        0.0487
     16 O         144.1249  137.5833  167.5294 O.3     1  UNL1       -0.3584
     17 C         144.4580  136.8253  168.7802 C.3     1  UNL1        0.1422
     18 C         144.1669  136.4627  171.3362 C.3     1  UNL1        0.0442
     19 O         146.0043  134.8385  172.1941 O.co2   1  UNL1       -0.5492
     20 C         145.5991  136.1920  171.6902 C.2     1  UNL1        0.0504
     21 O         146.6263  137.2748  171.5403 O.co2   1  UNL1       -0.5492
     22 C         141.1689  143.2848  160.0792 C.2     1  UNL1        0.3767
     23 N         140.6152  144.6773  160.0132 N.2     1  UNL1       -0.0308
     24 C         140.4351  145.0365  158.5680 C.2     1  UNL1        0.2320
     25 C         139.9255  146.2782  157.8984 C.2     1  UNL1        0.0537
     26 C         139.8582  146.3494  156.4016 C.2     1  UNL1        0.0714
     27 C         140.3006  145.1789  155.5745 C.2     1  UNL1       -0.0133
     28 C         140.8103  143.9372  156.2440 C.3     1  UNL1        0.1037
     29 C         140.8775  143.8660  157.7408 C.2     1  UNL1        0.2178
     30 N         141.3310  142.7834  158.6748 N.2     1  UNL1       -0.0347
     31 C         139.3485  147.5911  155.7320 C.3     1  UNL1        0.4184
     32 F         138.8388  148.8328  155.0624 F       1  UNL1       -0.1659
     33 F         138.6883  148.0104  157.0119 F       1  UNL1       -0.1659
     34 F         140.0087  147.1719  154.4520 F       1  UNL1       -0.1659
@<TRIPOS>UNITY_ATOM_ATTR
19 1
charge -1
@<TRIPOS>BOND
     1    19    20   ar
     2    20    21   ar
     3    20    18    1
     4    18     7    1
     5     7     8    1
     6     8     9    1
     7     9    10    1
     8    10    11    1
     9    11    12    1
    10    12    13    1
    11    13     1    1
    12     1     2   ar
    13     2     3   ar
    14     3     4   ar
    15     4    22    1
    16    22    23    2
    17    23    24    1
    18    24    25    2
    19    25    26    1
    20    26    31    1
    21    31    32    1
    22    31    33    1
    23    31    34    1
    24    26    27    2
    25    27    28    1
    26    28    29    1
    27    29    30    2
    28     4     5   ar
    29     5     6   ar
    30    13    14    1
    31    14    15    1
    32    10    16    1
    33    16    17    1
    34    17     7    1
    35    15    10    1
    36     6     1   ar
    37    30    22    1
    38    29    24    1
@<TRIPOS>MOLECULE
*****
 34 38 0 0 0
SMALL
GASTEIGER

@<TRIPOS>ATOM
      1 C         141.1065  143.2612  161.9696 C.ar    1  UNL1        0.1317
      2 C         140.4867  144.6219  161.8513 C.ar    1  UNL1        0.0346
      3 C         140.4033  145.2943  160.5130 C.ar    1  UNL1        0.0121
      4 C         140.9398  144.6060  159.2931 C.ar    1  UNL1        0.1076
      5 C         141.5597  143.2452  159.4115 C.ar    1  UNL1        0.1080
      6 N         141.6430  142.5728  160.7497 N.ar    1  UNL1       -0.2289
      7 C         141.5232  139.8992  168.6609 C.3     1  UNL1        0.0353
      8 C         140.3970  140.8449  168.3656 C.3     1  UNL1        0.0053
      9 C         140.3136  141.5173  167.0273 C.3     1  UNL1        0.0274
     10 C         141.3565  141.2440  165.9844 C.3     1  UNL1        0.0961
     11 C         142.3994  140.9707  164.9415 C.3     1  UNL1        0.0487
     12 C         142.3160  141.6431  163.6033 C.3     1  UNL1        0.0946
     13 N         141.1898  142.5888  163.3079 N.pl3   1  UNL1       -0.2931
     14 C         140.1470  142.8621  164.3508 C.3     1  UNL1        0.0946
     15 C         140.2303  142.1897  165.6890 C.3     1  UNL1        0.0487
     16 O         142.4827  140.2983  166.2798 O.3     1  UNL1       -0.3584
     17 C         142.5661  139.6259  167.6180 C.3     1  UNL1        0.1422
     18 C         141.6065  139.2268  169.9992 C.3     1  UNL1        0.0442
     19 O         143.8866  139.7394  171.1342 O.co2   1  UNL1       -0.5492
     20 C         142.9320  138.7578  170.5217 C.2     1  UNL1        0.0504
     21 O         143.3030  137.3072  170.4316 O.co2   1  UNL1       -0.5492
     22 C         140.8565  145.2783  157.9549 C.2     1  UNL1        0.3767
     23 N         140.1907  146.5915  157.6678 N.2     1  UNL1       -0.0308
     24 C         140.3470  146.8804  156.2042 C.2     1  UNL1        0.2320
     25 C         139.8936  148.0299  155.3541 C.2     1  UNL1        0.0537
     26 C         140.2027  148.0450  153.8864 C.2     1  UNL1        0.0714
     27 C         140.9651  146.9104  153.2688 C.2     1  UNL1       -0.0133
     28 C         141.4186  145.7608  154.1190 C.3     1  UNL1        0.1037
     29 C         141.1095  145.7458  155.5867 C.2     1  UNL1        0.2178
     30 N         141.4243  144.7557  156.6686 N.2     1  UNL1       -0.0347
     31 C         139.7492  149.1946  153.0361 C.3     1  UNL1        0.4184
     32 F         139.2959  150.3441  152.1859 F       1  UNL1       -0.1659
     33 F         140.7190  148.7863  151.9670 F       1  UNL1       -0.1659
     34 F         138.7795  149.6028  154.1052 F       1  UNL1       -0.1659
@<TRIPOS>UNITY_ATOM_ATTR
19 1
charge -1
@<TRIPOS>BOND
     1    19    20   ar
     2    20    21   ar
     3    20    18    1
     4    18     7    1
     5     7     8    1
     6     8     9    1
     7     9    10    1
     8    10    11    1
     9    11    12    1
    10    12    13    1
    11    13     1    1
    12     1     2   ar
    13     2     3   ar
    14     3     4   ar
    15     4    22    1
    16    22    23    2
    17    23    24    1
    18    24    25    2
    19    25    26    1
    20    26    31    1
    21    31    32    1
    22    31    33    1
    23    31    34    1
    24    26    27    2
    25    27    28    1
    26    28    29    1
    27    29    30    2
    28     4     5   ar
    29     5     6   ar
    30    13    14    1
    31    14    15    1
    32    10    16    1
    33    16    17    1
    34    17     7    1
    35    15    10    1
    36     6     1   ar
    37    30    22    1
    38    29    24    1
