@<TRIPOS>MOLECULE
*****
 23 25 0 0 0
SMALL
GASTEIGER

@<TRIPOS>ATOM
      1 C         137.8944  140.8186  162.7965 C.2     1  UNL1        0.2587
      2 O         136.9687  141.9829  162.6023 O.2     1  UNL1       -0.2692
      3 N         138.8702  140.8181  163.9357 N.am    1  UNL1       -0.2041
      4 C         138.8382  142.0289  164.8205 C.2     1  UNL1        0.2366
      5 O         137.8347  143.0801  164.4492 O.2     1  UNL1       -0.2741
      6 C         139.6772  142.3275  166.0276 C.3     1  UNL1        0.1015
      7 C         140.7553  141.4891  166.6480 C.3     1  UNL1        0.0832
      8 S         141.2606  140.1450  166.2144 S.3     1  UNL1       -0.1083
      9 C         140.8128  139.3073  165.0534 C.ar    1  UNL1        0.0396
     10 C         141.5834  138.0228  164.9749 C.ar    1  UNL1        0.0074
     11 C         141.2902  137.0379  163.8823 C.ar    1  UNL1        0.0006
     12 C         140.2263  137.3375  162.8681 C.ar    1  UNL1        0.0013
     13 C         139.4557  138.6220  162.9466 C.ar    1  UNL1        0.0158
     14 C         139.7490  139.6069  164.0393 C.ar    1  UNL1        0.0666
     15 C         141.4151  142.0718  167.8624 C.ar    1  UNL1       -0.0115
     16 C         140.6264  142.9326  168.8043 C.ar    1  UNL1       -0.0011
     17 C         141.2864  143.5153  170.0188 C.ar    1  UNL1        0.0293
     18 C         142.7350  143.2373  170.2914 C.ar    1  UNL1        0.1401
     19 F         143.3949  143.8200  171.5058 F       1  UNL1       -0.2042
     20 C         143.5237  142.3765  169.3495 C.ar    1  UNL1        0.0293
     21 C         142.8637  141.7938  168.1350 C.ar    1  UNL1       -0.0011
     22 C         137.4076  139.8604  160.4311 C.2     1  UNL1        0.0048
     23 C         137.8441  139.6548  161.8514 C.2     1  UNL1        0.0587
@<TRIPOS>BOND
     1    22    23    2
     2    23     1    1
     3     1     2    2
     4     1     3   am
     5     3     4   am
     6     4     5    2
     7     4     6    1
     8     6     7    1
     9     7    15    1
    10    15    16   ar
    11    16    17   ar
    12    17    18   ar
    13    18    19    1
    14    18    20   ar
    15    20    21   ar
    16     7     8    1
    17     8     9    1
    18     9    10   ar
    19    10    11   ar
    20    11    12   ar
    21    12    13   ar
    22    13    14   ar
    23    14     3    1
    24    21    15   ar
    25    14     9   ar
@<TRIPOS>MOLECULE
*****
 23 25 0 0 0
SMALL
GASTEIGER

@<TRIPOS>ATOM
      1 C         142.1060  138.0073  162.9146 C.2     1  UNL1        0.2587
      2 O         141.1148  136.8825  162.8667 O.2     1  UNL1       -0.2692
      3 N         142.0385  139.0199  164.0193 N.am    1  UNL1       -0.2041
      4 C         140.9428  138.8157  165.0232 C.2     1  UNL1        0.2366
      5 O         140.0596  137.6260  164.7898 O.2     1  UNL1       -0.2741
      6 C         140.6137  139.6440  166.2297 C.3     1  UNL1        0.1015
      7 C         141.2988  140.8810  166.7302 C.3     1  UNL1        0.0832
      8 S         142.4823  141.5951  166.1478 S.3     1  UNL1       -0.1083
      9 C         143.2731  141.2488  164.9211 C.ar    1  UNL1        0.0396
     10 C         144.3841  142.2297  164.6903 C.ar    1  UNL1        0.0074
     11 C         145.2976  142.0645  163.5121 C.ar    1  UNL1        0.0006
     12 C         145.1001  140.9184  162.5647 C.ar    1  UNL1        0.0013
     13 C         143.9890  139.9375  162.7956 C.ar    1  UNL1        0.0158
     14 C         143.0755  140.1027  163.9738 C.ar    1  UNL1        0.0666
     15 C         140.7244  141.4834  167.9781 C.ar    1  UNL1       -0.0115
     16 C         141.0148  142.9142  168.3225 C.ar    1  UNL1       -0.0011
     17 C         140.4404  143.5165  169.5705 C.ar    1  UNL1        0.0293
     18 C         139.5757  142.6882  170.4739 C.ar    1  UNL1        0.1401
     19 F         139.0014  143.2906  171.7217 F       1  UNL1       -0.2042
     20 C         139.2854  141.2574  170.1294 C.ar    1  UNL1        0.0293
     21 C         139.8598  140.6550  168.8815 C.ar    1  UNL1       -0.0011
     22 C         142.8999  137.6067  160.4735 C.2     1  UNL1        0.0048
     23 C         143.1648  138.1195  161.8579 C.2     1  UNL1        0.0587
@<TRIPOS>BOND
     1    22    23    2
     2    23     1    1
     3     1     2    2
     4     1     3   am
     5     3     4   am
     6     4     5    2
     7     4     6    1
     8     6     7    1
     9     7    15    1
    10    15    16   ar
    11    16    17   ar
    12    17    18   ar
    13    18    19    1
    14    18    20   ar
    15    20    21   ar
    16     7     8    1
    17     8     9    1
    18     9    10   ar
    19    10    11   ar
    20    11    12   ar
    21    12    13   ar
    22    13    14   ar
    23    14     3    1
    24    21    15   ar
    25    14     9   ar
@<TRIPOS>MOLECULE
*****
 23 25 0 0 0
SMALL
GASTEIGER

@<TRIPOS>ATOM
      1 C         140.1838  144.8989  162.1445 C.2     1  UNL1        0.2587
      2 O         138.8107  145.5020  162.1120 O.2     1  UNL1       -0.2692
      3 N         140.6483  144.1567  163.3625 N.am    1  UNL1       -0.2041
      4 C         139.6630  144.0761  164.4906 C.2     1  UNL1        0.2366
      5 O         138.3435  144.7482  164.2516 O.2     1  UNL1       -0.2741
      6 C         139.8228  143.4121  165.8261 C.3     1  UNL1        0.1015
      7 C         141.0073  142.6648  166.3634 C.3     1  UNL1        0.0832
      8 S         142.3245  142.3970  165.6977 S.3     1  UNL1       -0.1083
      9 C         142.7827  142.8103  164.3305 C.ar    1  UNL1        0.0396
     10 C         144.1784  142.3356  164.0535 C.ar    1  UNL1        0.0074
     11 C         144.8280  142.6441  162.7371 C.ar    1  UNL1        0.0006
     12 C         144.0820  143.4272  161.6978 C.ar    1  UNL1        0.0013
     13 C         142.6864  143.9019  161.9749 C.ar    1  UNL1        0.0158
     14 C         142.0367  143.5934  163.2912 C.ar    1  UNL1        0.0666
     15 C         140.8543  142.1124  167.7495 C.ar    1  UNL1       -0.0115
     16 C         140.5202  143.0285  168.8894 C.ar    1  UNL1       -0.0011
     17 C         140.3672  142.4759  170.2755 C.ar    1  UNL1        0.0293
     18 C         140.5482  141.0074  170.5218 C.ar    1  UNL1        0.1401
     19 F         140.3952  140.4550  171.9079 F       1  UNL1       -0.2042
     20 C         140.8823  140.0913  169.3819 C.ar    1  UNL1        0.0293
     21 C         141.0354  140.6439  167.9958 C.ar    1  UNL1       -0.0011
     22 C         140.5190  145.3389  159.6060 C.2     1  UNL1        0.0048
     23 C         141.0923  145.0381  160.9591 C.2     1  UNL1        0.0587
@<TRIPOS>BOND
     1    22    23    2
     2    23     1    1
     3     1     2    2
     4     1     3   am
     5     3     4   am
     6     4     5    2
     7     4     6    1
     8     6     7    1
     9     7    15    1
    10    15    16   ar
    11    16    17   ar
    12    17    18   ar
    13    18    19    1
    14    18    20   ar
    15    20    21   ar
    16     7     8    1
    17     8     9    1
    18     9    10   ar
    19    10    11   ar
    20    11    12   ar
    21    12    13   ar
    22    13    14   ar
    23    14     3    1
    24    21    15   ar
    25    14     9   ar
@<TRIPOS>MOLECULE
*****
 23 25 0 0 0
SMALL
GASTEIGER

@<TRIPOS>ATOM
      1 C         142.3726  144.0424  161.7205 C.2     1  UNL1        0.2587
      2 O         143.7545  143.8940  161.1561 O.2     1  UNL1       -0.2692
      3 N         142.0681  143.5393  163.1004 N.am    1  UNL1       -0.2041
      4 C         143.2152  142.9050  163.8297 C.2     1  UNL1        0.2366
      5 O         144.5150  142.8577  163.0828 O.2     1  UNL1       -0.2741
      6 C         143.2342  142.3118  165.2073 C.3     1  UNL1        0.1015
      7 C         142.1109  142.2063  166.1959 C.3     1  UNL1        0.0832
      8 S         140.6911  142.6681  166.0508 S.3     1  UNL1       -0.1083
      9 C         140.0439  143.3493  164.8815 C.ar    1  UNL1        0.0396
     10 C         138.5975  143.6422  165.1497 C.ar    1  UNL1        0.0074
     11 C         137.7639  144.3229  164.1049 C.ar    1  UNL1        0.0006
     12 C         138.3767  144.7106  162.7918 C.ar    1  UNL1        0.0013
     13 C         139.8231  144.4177  162.5236 C.ar    1  UNL1        0.0158
     14 C         140.6567  143.7370  163.5685 C.ar    1  UNL1        0.0666
     15 C         142.4525  141.5528  167.5020 C.ar    1  UNL1       -0.0115
     16 C         143.1140  142.3481  168.5882 C.ar    1  UNL1       -0.0011
     17 C         143.4557  141.6945  169.8944 C.ar    1  UNL1        0.0293
     18 C         143.1358  140.2456  170.1143 C.ar    1  UNL1        0.1401
     19 F         143.4774  139.5920  171.4205 F       1  UNL1       -0.2042
     20 C         142.4743  139.4502  169.0281 C.ar    1  UNL1        0.0293
     21 C         142.1326  140.1039  167.7219 C.ar    1  UNL1       -0.0011
     22 C         141.4269  144.7700  159.4126 C.2     1  UNL1        0.0048
     23 C         141.2953  144.6938  160.9049 C.2     1  UNL1        0.0587
@<TRIPOS>BOND
     1    22    23    2
     2    23     1    1
     3     1     2    2
     4     1     3   am
     5     3     4   am
     6     4     5    2
     7     4     6    1
     8     6     7    1
     9     7    15    1
    10    15    16   ar
    11    16    17   ar
    12    17    18   ar
    13    18    19    1
    14    18    20   ar
    15    20    21   ar
    16     7     8    1
    17     8     9    1
    18     9    10   ar
    19    10    11   ar
    20    11    12   ar
    21    12    13   ar
    22    13    14   ar
    23    14     3    1
    24    21    15   ar
    25    14     9   ar
@<TRIPOS>MOLECULE
*****
 23 25 0 0 0
SMALL
GASTEIGER

@<TRIPOS>ATOM
      1 C         138.7475  142.7900  161.4968 C.2     1  UNL1        0.2587
      2 O         138.8386  144.2768  161.3196 O.2     1  UNL1       -0.2692
      3 N         139.0056  142.1778  162.8416 N.am    1  UNL1       -0.2041
      4 C         139.3465  143.1404  163.9403 C.2     1  UNL1        0.2366
      5 O         139.3843  144.5879  163.5490 O.2     1  UNL1       -0.2741
      6 C         139.6546  142.8468  165.3787 C.3     1  UNL1        0.1015
      7 C         139.6979  141.5181  166.0736 C.3     1  UNL1        0.0832
      8 S         139.4438  140.1549  165.5017 S.3     1  UNL1       -0.1083
      9 C         139.0836  139.7836  164.0937 C.ar    1  UNL1        0.0396
     10 C         138.9168  138.3005  163.9436 C.ar    1  UNL1        0.0074
     11 C         138.5550  137.7177  162.6097 C.ar    1  UNL1        0.0006
     12 C         138.3600  138.6179  161.4259 C.ar    1  UNL1        0.0013
     13 C         138.5268  140.1010  161.5759 C.ar    1  UNL1        0.0158
     14 C         138.8886  140.6839  162.9098 C.ar    1  UNL1        0.0666
     15 C         140.0406  141.5580  167.5333 C.ar    1  UNL1       -0.0115
     16 C         140.6211  142.8041  168.1337 C.ar    1  UNL1       -0.0011
     17 C         140.9638  142.8439  169.5935 C.ar    1  UNL1        0.0293
     18 C         140.7261  141.6377  170.4529 C.ar    1  UNL1        0.1401
     19 F         141.0688  141.6776  171.9126 F       1  UNL1       -0.2042
     20 C         140.1456  140.3916  169.8525 C.ar    1  UNL1        0.0293
     21 C         139.8029  140.3518  168.3927 C.ar    1  UNL1       -0.0011
     22 C         138.4798  142.4599  158.9337 C.2     1  UNL1        0.0048
     23 C         138.3984  141.9156  160.3290 C.2     1  UNL1        0.0587
@<TRIPOS>BOND
     1    22    23    2
     2    23     1    1
     3     1     2    2
     4     1     3   am
     5     3     4   am
     6     4     5    2
     7     4     6    1
     8     6     7    1
     9     7    15    1
    10    15    16   ar
    11    16    17   ar
    12    17    18   ar
    13    18    19    1
    14    18    20   ar
    15    20    21   ar
    16     7     8    1
    17     8     9    1
    18     9    10   ar
    19    10    11   ar
    20    11    12   ar
    21    12    13   ar
    22    13    14   ar
    23    14     3    1
    24    21    15   ar
    25    14     9   ar
@<TRIPOS>MOLECULE
*****
 23 25 0 0 0
SMALL
GASTEIGER

@<TRIPOS>ATOM
      1 C         138.0936  139.4732  162.3424 C.2     1  UNL1        0.2587
      2 O         138.0478  137.9842  162.1670 O.2     1  UNL1       -0.2692
      3 N         138.6705  140.0635  163.5950 N.am    1  UNL1       -0.2041
      4 C         139.1731  139.0775  164.6075 C.2     1  UNL1        0.2366
      5 O         139.0325  137.6317  164.2336 O.2     1  UNL1       -0.2741
      6 C         139.7978  139.3462  165.9445 C.3     1  UNL1        0.1015
      7 C         140.0742  140.6672  166.5992 C.3     1  UNL1        0.0832
      8 S         139.7940  142.0458  166.0785 S.3     1  UNL1       -0.1083
      9 C         139.1684  142.4439  164.7746 C.ar    1  UNL1        0.0396
     10 C         139.0708  143.9351  164.6463 C.ar    1  UNL1        0.0074
     11 C         138.4731  144.5442  163.4127 C.ar    1  UNL1        0.0006
     12 C         137.9730  143.6620  162.3074 C.ar    1  UNL1        0.0013
     13 C         138.0706  142.1707  162.4357 C.ar    1  UNL1        0.0158
     14 C         138.6683  141.5616  163.6693 C.ar    1  UNL1        0.0666
     15 C         140.7154  140.6009  167.9535 C.ar    1  UNL1       -0.0115
     16 C         142.1750  140.9105  168.1082 C.ar    1  UNL1       -0.0011
     17 C         142.8162  140.8441  169.4627 C.ar    1  UNL1        0.0293
     18 C         141.9980  140.4682  170.6623 C.ar    1  UNL1        0.1401
     19 F         142.6392  140.4019  172.0167 F       1  UNL1       -0.2042
     20 C         140.5384  140.1587  170.5076 C.ar    1  UNL1        0.0293
     21 C         139.8972  140.2250  169.1532 C.ar    1  UNL1       -0.0011
     22 C         137.7477  140.0043  159.8228 C.2     1  UNL1        0.0048
     23 C         137.5626  140.3720  161.2652 C.2     1  UNL1        0.0587
@<TRIPOS>BOND
     1    22    23    2
     2    23     1    1
     3     1     2    2
     4     1     3   am
     5     3     4   am
     6     4     5    2
     7     4     6    1
     8     6     7    1
     9     7    15    1
    10    15    16   ar
    11    16    17   ar
    12    17    18   ar
    13    18    19    1
    14    18    20   ar
    15    20    21   ar
    16     7     8    1
    17     8     9    1
    18     9    10   ar
    19    10    11   ar
    20    11    12   ar
    21    12    13   ar
    22    13    14   ar
    23    14     3    1
    24    21    15   ar
    25    14     9   ar
@<TRIPOS>MOLECULE
*****
 23 25 0 0 0
SMALL
GASTEIGER

@<TRIPOS>ATOM
      1 C         142.9325  138.3697  162.1387 C.2     1  UNL1        0.2587
      2 O         144.4170  138.3184  162.3482 O.2     1  UNL1       -0.2692
      3 N         142.0452  138.9512  163.1991 N.am    1  UNL1       -0.2041
      4 C         142.7429  139.4525  164.4287 C.2     1  UNL1        0.2366
      5 O         144.2357  139.3061  164.4353 O.2     1  UNL1       -0.2741
      6 C         142.1451  140.0810  165.6525 C.3     1  UNL1        0.1015
      7 C         140.7021  140.3633  165.9491 C.3     1  UNL1        0.0832
      8 S         139.5004  140.0868  165.0949 S.3     1  UNL1       -0.1083
      9 C         139.4449  139.4599  163.7334 C.ar    1  UNL1        0.0396
     10 C         138.0350  139.3672  163.2298 C.ar    1  UNL1        0.0074
     11 C         137.7577  138.7690  161.8825 C.ar    1  UNL1        0.0006
     12 C         138.8902  138.2636  161.0387 C.ar    1  UNL1        0.0013
     13 C         140.3001  138.3564  161.5423 C.ar    1  UNL1        0.0158
     14 C         140.5774  138.9545  162.8896 C.ar    1  UNL1        0.0666
     15 C         140.4240  141.0071  167.2750 C.ar    1  UNL1       -0.0115
     16 C         140.8096  142.4376  167.5097 C.ar    1  UNL1       -0.0011
     17 C         140.5315  143.0814  168.8357 C.ar    1  UNL1        0.0293
     18 C         139.8677  142.2948  169.9269 C.ar    1  UNL1        0.1401
     19 F         139.5897  142.9386  171.2528 F       1  UNL1       -0.2042
     20 C         139.4821  140.8643  169.6922 C.ar    1  UNL1        0.0293
     21 C         139.7603  140.2205  168.3662 C.ar    1  UNL1       -0.0011
     22 C         143.0207  138.0869  159.5576 C.2     1  UNL1        0.0048
     23 C         142.3355  137.8396  160.8688 C.2     1  UNL1        0.0587
@<TRIPOS>BOND
     1    22    23    2
     2    23     1    1
     3     1     2    2
     4     1     3   am
     5     3     4   am
     6     4     5    2
     7     4     6    1
     8     6     7    1
     9     7    15    1
    10    15    16   ar
    11    16    17   ar
    12    17    18   ar
    13    18    19    1
    14    18    20   ar
    15    20    21   ar
    16     7     8    1
    17     8     9    1
    18     9    10   ar
    19    10    11   ar
    20    11    12   ar
    21    12    13   ar
    22    13    14   ar
    23    14     3    1
    24    21    15   ar
    25    14     9   ar
@<TRIPOS>MOLECULE
*****
 23 25 0 0 0
SMALL
GASTEIGER

@<TRIPOS>ATOM
      1 C         142.8697  139.0560  168.3413 C.2     1  UNL1        0.2587
      2 O         143.6292  138.1257  167.4425 O.2     1  UNL1       -0.2692
      3 N         142.1965  140.2683  167.7693 N.am    1  UNL1       -0.2041
      4 C         142.3444  140.4571  166.2886 C.2     1  UNL1        0.2366
      5 O         143.1459  139.4086  165.5757 O.2     1  UNL1       -0.2741
      6 C         141.7968  141.5558  165.4266 C.3     1  UNL1        0.1015
      7 C         140.9660  142.7370  165.8324 C.3     1  UNL1        0.0832
      8 S         140.4777  143.1112  167.2004 S.3     1  UNL1       -0.1083
      9 C         140.6995  142.3967  168.5006 C.ar    1  UNL1        0.0396
     10 C         140.0345  143.1117  169.6392 C.ar    1  UNL1        0.0074
     11 C         140.1344  142.5614  171.0310 C.ar    1  UNL1        0.0006
     12 C         140.8994  141.2962  171.2842 C.ar    1  UNL1        0.0013
     13 C         141.5644  140.5813  170.1456 C.ar    1  UNL1        0.0158
     14 C         141.4645  141.1315  168.7537 C.ar    1  UNL1        0.0666
     15 C         140.5713  143.6668  164.7235 C.ar    1  UNL1       -0.0115
     16 C         141.6190  144.4648  164.0053 C.ar    1  UNL1       -0.0011
     17 C         141.2243  145.3947  162.8964 C.ar    1  UNL1        0.0293
     18 C         139.7821  145.5266  162.5058 C.ar    1  UNL1        0.1401
     19 F         139.3874  146.4564  161.3970 F       1  UNL1       -0.2042
     20 C         138.7344  144.7286  163.2240 C.ar    1  UNL1        0.0293
     21 C         139.1291  143.7987  164.3329 C.ar    1  UNL1       -0.0011
     22 C         143.3540  137.5023  170.3665 C.2     1  UNL1        0.0048
     23 C         142.7834  138.7739  169.8120 C.2     1  UNL1        0.0587
@<TRIPOS>BOND
     1    22    23    2
     2    23     1    1
     3     1     2    2
     4     1     3   am
     5     3     4   am
     6     4     5    2
     7     4     6    1
     8     6     7    1
     9     7    15    1
    10    15    16   ar
    11    16    17   ar
    12    17    18   ar
    13    18    19    1
    14    18    20   ar
    15    20    21   ar
    16     7     8    1
    17     8     9    1
    18     9    10   ar
    19    10    11   ar
    20    11    12   ar
    21    12    13   ar
    22    13    14   ar
    23    14     3    1
    24    21    15   ar
    25    14     9   ar
@<TRIPOS>MOLECULE
*****
 23 25 0 0 0
SMALL
GASTEIGER

@<TRIPOS>ATOM
      1 C         138.1641  142.9592  162.7870 C.2     1  UNL1        0.2587
      2 O         138.0645  144.2312  161.9982 O.2     1  UNL1       -0.2692
      3 N         138.7182  141.7211  162.1467 N.am    1  UNL1       -0.2041
      4 C         139.1433  141.8632  160.7152 C.2     1  UNL1        0.2366
      5 O         138.9581  143.2246  160.1134 O.2     1  UNL1       -0.2741
      6 C         139.7292  140.8239  159.8061 C.3     1  UNL1        0.1015
      7 C         140.0347  139.3858  160.1038 C.3     1  UNL1        0.0832
      8 S         139.8297  138.6319  161.3843 S.3     1  UNL1       -0.1083
      9 C         139.2686  139.1298  162.6833 C.ar    1  UNL1        0.0396
     10 C         139.2361  138.0444  163.7181 C.ar    1  UNL1        0.0074
     11 C         138.7090  138.3339  165.0922 C.ar    1  UNL1        0.0006
     12 C         138.2143  139.7088  165.4315 C.ar    1  UNL1        0.0013
     13 C         138.2468  140.7941  164.3967 C.ar    1  UNL1        0.0158
     14 C         138.7740  140.5046  163.0226 C.ar    1  UNL1        0.0666
     15 C         140.6228  138.5974  158.9714 C.ar    1  UNL1       -0.0115
     16 C         142.0826  138.2523  158.9764 C.ar    1  UNL1       -0.0011
     17 C         142.6708  137.4639  157.8439 C.ar    1  UNL1        0.0293
     18 C         141.7992  137.0206  156.7065 C.ar    1  UNL1        0.1401
     19 F         142.3874  136.2322  155.5741 F       1  UNL1       -0.2042
     20 C         140.3394  137.3657  156.7014 C.ar    1  UNL1        0.0293
     21 C         139.7513  138.1541  157.8339 C.ar    1  UNL1       -0.0011
     22 C         137.7274  144.1796  165.0387 C.2     1  UNL1        0.0048
     23 C         137.7095  142.9254  164.2161 C.2     1  UNL1        0.0587
@<TRIPOS>BOND
     1    22    23    2
     2    23     1    1
     3     1     2    2
     4     1     3   am
     5     3     4   am
     6     4     5    2
     7     4     6    1
     8     6     7    1
     9     7    15    1
    10    15    16   ar
    11    16    17   ar
    12    17    18   ar
    13    18    19    1
    14    18    20   ar
    15    20    21   ar
    16     7     8    1
    17     8     9    1
    18     9    10   ar
    19    10    11   ar
    20    11    12   ar
    21    12    13   ar
    22    13    14   ar
    23    14     3    1
    24    21    15   ar
    25    14     9   ar
