@<TRIPOS>MOLECULE
*****
 35 39 0 0 0
SMALL
GASTEIGER

@<TRIPOS>ATOM
      1 O         139.8390  139.7711  167.3507 O.2     1  UNL1       -0.2718
      2 C         139.9364  140.7314  166.2024 C.2     1  UNL1        0.2592
      3 C         139.3137  140.3872  164.8819 C.3     1  UNL1        0.2208
      4 O         139.4111  141.3474  163.7337 O.3     1  UNL1       -0.3478
      5 C         140.1313  142.6519  163.9060 C.3     1  UNL1        0.1146
      6 C         140.8515  143.9564  164.0782 C.3     1  UNL1        0.0463
      7 C         140.9489  144.9166  162.9300 C.3     1  UNL1        0.0746
      8 N         140.3262  144.5724  161.6095 N.3     1  UNL1       -0.2722
      9 C         139.6060  143.2679  161.4372 C.3     1  UNL1        0.0746
     10 C         139.5086  142.3077  162.5855 C.3     1  UNL1        0.0463
     11 C         140.7541  142.9962  165.2265 C.3     1  UNL1        0.1254
     12 N         140.6566  142.0359  166.3747 N.am    1  UNL1       -0.2542
     13 C         141.2793  142.3801  167.6952 C.ar    1  UNL1        0.0540
     14 C         140.4835  143.1190  168.7299 C.ar    1  UNL1        0.0149
     15 C         141.1062  143.4632  170.0504 C.ar    1  UNL1        0.0013
     16 C         142.5248  143.0686  170.3362 C.ar    1  UNL1        0.0001
     17 C         143.3208  142.3297  169.3015 C.ar    1  UNL1        0.0013
     18 C         142.6980  141.9854  167.9810 C.ar    1  UNL1        0.0149
     19 C         138.5935  139.0827  164.7097 C.3     1  UNL1        0.1814
     20 O         139.3678  137.7987  164.6650 O.3     1  UNL1       -0.3459
     21 C         140.4836  137.6298  163.6769 C.3     1  UNL1        0.1687
     22 C         141.8510  138.1600  163.9919 C.ar    1  UNL1        0.0073
     23 C         142.3257  138.2127  165.4138 C.ar    1  UNL1       -0.0019
     24 C         143.6931  138.7428  165.7288 C.ar    1  UNL1       -0.0002
     25 C         144.5858  139.2202  164.6220 C.ar    1  UNL1       -0.0000
     26 C         144.1111  139.1675  163.2001 C.ar    1  UNL1       -0.0002
     27 C         142.7437  138.6373  162.8851 C.ar    1  UNL1       -0.0019
     28 C         140.4237  145.5327  160.4613 C.3     1  UNL1        0.0768
     29 C         141.0244  145.0881  159.1607 C.3     1  UNL1        0.0437
     30 C         140.2027  145.1172  157.9061 C.ar    1  UNL1       -0.0208
     31 C         140.0038  146.4087  157.1696 C.ar    1  UNL1       -0.0042
     32 C         139.1820  146.4378  155.9151 C.ar    1  UNL1       -0.0003
     33 C         138.5592  145.1754  155.3971 C.ar    1  UNL1       -0.0000
     34 C         138.7581  143.8839  156.1336 C.ar    1  UNL1       -0.0003
     35 C         139.5798  143.8548  157.3881 C.ar    1  UNL1       -0.0042
@<TRIPOS>BOND
     1     1     2    2
     2     2     3    1
     3     3    19    1
     4    19    20    1
     5    20    21    1
     6    21    22    1
     7    22    23   ar
     8    23    24   ar
     9    24    25   ar
    10    25    26   ar
    11    26    27   ar
    12     3     4    1
    13     4     5    1
    14     5     6    1
    15     6     7    1
    16     7     8    1
    17     8    28    1
    18    28    29    1
    19    29    30    1
    20    30    31   ar
    21    31    32   ar
    22    32    33   ar
    23    33    34   ar
    24    34    35   ar
    25     8     9    1
    26     9    10    1
    27     5    11    1
    28    11    12    1
    29    12    13    1
    30    13    14   ar
    31    14    15   ar
    32    15    16   ar
    33    16    17   ar
    34    17    18   ar
    35    12     2   am
    36    18    13   ar
    37    27    22   ar
    38    10     5    1
    39    35    30   ar
@<TRIPOS>MOLECULE
*****
 35 39 0 0 0
SMALL
GASTEIGER

@<TRIPOS>ATOM
      1 O         142.9135  144.4666  157.5099 O.2     1  UNL1       -0.2718
      2 C         142.9607  143.6255  158.7510 C.2     1  UNL1        0.2592
      3 C         142.0457  143.9316  159.8996 C.3     1  UNL1        0.2208
      4 O         142.0928  143.0906  161.1407 O.3     1  UNL1       -0.3478
      5 C         143.0549  141.9434  161.2333 C.3     1  UNL1        0.1146
      6 C         144.0170  140.7963  161.3259 C.3     1  UNL1        0.0463
      7 C         144.0641  139.9553  162.5670 C.3     1  UNL1        0.0746
      8 N         143.1492  140.2614  163.7156 N.3     1  UNL1       -0.2722
      9 C         142.1871  141.4085  163.6230 C.3     1  UNL1        0.0746
     10 C         142.1400  142.2495  162.3819 C.3     1  UNL1        0.0463
     11 C         143.9698  141.6373  160.0848 C.3     1  UNL1        0.1254
     12 N         143.9227  142.4784  158.8436 N.am    1  UNL1       -0.2542
     13 C         144.8376  142.1723  157.6950 C.ar    1  UNL1        0.0540
     14 C         144.3614  141.3058  156.5671 C.ar    1  UNL1        0.0149
     15 C         145.2763  140.9997  155.4185 C.ar    1  UNL1        0.0013
     16 C         146.6675  141.5602  155.3979 C.ar    1  UNL1        0.0001
     17 C         147.1438  142.4267  156.5258 C.ar    1  UNL1        0.0013
     18 C         146.2289  142.7328  157.6744 C.ar    1  UNL1        0.0149
     19 C         141.0837  145.0788  159.8070 C.3     1  UNL1        0.1814
     20 O         139.7560  145.0020  160.5008 O.3     1  UNL1       -0.3459
     21 C         139.6317  145.4331  161.9321 C.3     1  UNL1        0.1687
     22 C         139.3589  144.4164  163.0007 C.ar    1  UNL1        0.0073
     23 C         139.9904  144.5622  164.3534 C.ar    1  UNL1       -0.0019
     24 C         139.7176  143.5454  165.4220 C.ar    1  UNL1       -0.0002
     25 C         138.8133  142.3830  165.1379 C.ar    1  UNL1       -0.0000
     26 C         138.1817  142.2372  163.7852 C.ar    1  UNL1       -0.0002
     27 C         138.4545  143.2540  162.7166 C.ar    1  UNL1       -0.0019
     28 C         143.1963  139.4204  164.9568 C.3     1  UNL1        0.0768
     29 C         142.4640  139.8608  166.1895 C.3     1  UNL1        0.0437
     30 C         141.0118  139.5252  166.3593 C.ar    1  UNL1       -0.0208
     31 C         140.2748  139.9815  167.5835 C.ar    1  UNL1       -0.0042
     32 C         138.8228  139.6459  167.7533 C.ar    1  UNL1       -0.0003
     33 C         138.1077  138.8540  166.6990 C.ar    1  UNL1       -0.0000
     34 C         138.8448  138.3977  165.4748 C.ar    1  UNL1       -0.0003
     35 C         140.2968  138.7333  165.3050 C.ar    1  UNL1       -0.0042
@<TRIPOS>BOND
     1     1     2    2
     2     2     3    1
     3     3    19    1
     4    19    20    1
     5    20    21    1
     6    21    22    1
     7    22    23   ar
     8    23    24   ar
     9    24    25   ar
    10    25    26   ar
    11    26    27   ar
    12     3     4    1
    13     4     5    1
    14     5     6    1
    15     6     7    1
    16     7     8    1
    17     8    28    1
    18    28    29    1
    19    29    30    1
    20    30    31   ar
    21    31    32   ar
    22    32    33   ar
    23    33    34   ar
    24    34    35   ar
    25     8     9    1
    26     9    10    1
    27     5    11    1
    28    11    12    1
    29    12    13    1
    30    13    14   ar
    31    14    15   ar
    32    15    16   ar
    33    16    17   ar
    34    17    18   ar
    35    12     2   am
    36    18    13   ar
    37    27    22   ar
    38    10     5    1
    39    35    30   ar
@<TRIPOS>MOLECULE
*****
 35 39 0 0 0
SMALL
GASTEIGER

@<TRIPOS>ATOM
      1 O         138.7800  143.4704  156.9579 O.2     1  UNL1       -0.2718
      2 C         138.7547  142.6302  158.2004 C.2     1  UNL1        0.2592
      3 C         139.3390  143.1603  159.4762 C.3     1  UNL1        0.2208
      4 O         139.3136  142.3202  160.7186 O.3     1  UNL1       -0.3478
      5 C         138.7040  140.9500  160.6853 C.3     1  UNL1        0.1146
      6 C         138.0944  139.5800  160.6519 C.3     1  UNL1        0.0463
      7 C         138.0690  138.7399  161.8943 C.3     1  UNL1        0.0746
      8 N         138.6533  139.2700  163.1701 N.3     1  UNL1       -0.2722
      9 C         139.2629  140.6401  163.2035 C.3     1  UNL1        0.0746
     10 C         139.2883  141.4801  161.9611 C.3     1  UNL1        0.0463
     11 C         138.1197  140.4200  159.4095 C.3     1  UNL1        0.1254
     12 N         138.1451  141.2601  158.1670 N.am    1  UNL1       -0.2542
     13 C         137.5608  140.7301  156.8912 C.ar    1  UNL1        0.0540
     14 C         138.4227  139.9616  155.9340 C.ar    1  UNL1        0.0149
     15 C         137.8384  139.4315  154.6582 C.ar    1  UNL1        0.0013
     16 C         136.3922  139.6700  154.3396 C.ar    1  UNL1        0.0001
     17 C         135.5302  140.4385  155.2969 C.ar    1  UNL1        0.0013
     18 C         136.1145  140.9686  156.5727 C.ar    1  UNL1        0.0149
     19 C         139.9486  144.5305  159.5095 C.3     1  UNL1        0.1814
     20 O         139.7638  145.4044  160.7145 O.3     1  UNL1       -0.3459
     21 C         140.7813  145.3876  161.8165 C.3     1  UNL1        0.1687
     22 C         140.4722  144.6982  163.1123 C.ar    1  UNL1        0.0073
     23 C         141.5357  143.9052  163.8123 C.ar    1  UNL1       -0.0019
     24 C         141.2265  143.2159  165.1082 C.ar    1  UNL1       -0.0002
     25 C         139.8539  143.3195  165.7040 C.ar    1  UNL1       -0.0000
     26 C         138.7904  144.1125  165.0040 C.ar    1  UNL1       -0.0002
     27 C         139.0995  144.8019  163.7082 C.ar    1  UNL1       -0.0019
     28 C         138.6280  138.4298  164.4126 C.3     1  UNL1        0.0768
     29 C         138.3812  139.0705  165.7462 C.3     1  UNL1        0.0437
     30 C         139.5391  139.4704  166.6119 C.ar    1  UNL1       -0.0208
     31 C         140.9370  139.4045  166.0721 C.ar    1  UNL1       -0.0042
     32 C         142.0948  139.8045  166.9378 C.ar    1  UNL1       -0.0003
     33 C         141.8547  140.2704  168.3433 C.ar    1  UNL1       -0.0000
     34 C         140.4568  140.3363  168.8830 C.ar    1  UNL1       -0.0003
     35 C         139.2990  139.9363  168.0174 C.ar    1  UNL1       -0.0042
@<TRIPOS>BOND
     1     1     2    2
     2     2     3    1
     3     3    19    1
     4    19    20    1
     5    20    21    1
     6    21    22    1
     7    22    23   ar
     8    23    24   ar
     9    24    25   ar
    10    25    26   ar
    11    26    27   ar
    12     3     4    1
    13     4     5    1
    14     5     6    1
    15     6     7    1
    16     7     8    1
    17     8    28    1
    18    28    29    1
    19    29    30    1
    20    30    31   ar
    21    31    32   ar
    22    32    33   ar
    23    33    34   ar
    24    34    35   ar
    25     8     9    1
    26     9    10    1
    27     5    11    1
    28    11    12    1
    29    12    13    1
    30    13    14   ar
    31    14    15   ar
    32    15    16   ar
    33    16    17   ar
    34    17    18   ar
    35    12     2   am
    36    18    13   ar
    37    27    22   ar
    38    10     5    1
    39    35    30   ar
@<TRIPOS>MOLECULE
*****
 35 39 0 0 0
SMALL
GASTEIGER

@<TRIPOS>ATOM
      1 O         139.9194  139.7044  167.5189 O.2     1  UNL1       -0.2718
      2 C         140.0167  140.6083  166.3258 C.2     1  UNL1        0.2592
      3 C         139.4018  140.1966  165.0210 C.3     1  UNL1        0.2208
      4 O         139.4990  141.1004  163.8278 O.3     1  UNL1       -0.3478
      5 C         140.2111  142.4159  163.9394 C.3     1  UNL1        0.1146
      6 C         140.9232  143.7314  164.0510 C.3     1  UNL1        0.0463
      7 C         141.0204  144.6351  162.8579 C.3     1  UNL1        0.0746
      8 N         140.4056  144.2235  161.5531 N.3     1  UNL1       -0.2722
      9 C         139.6935  142.9081  161.4415 C.3     1  UNL1        0.0746
     10 C         139.5962  142.0043  162.6346 C.3     1  UNL1        0.0463
     11 C         140.8260  142.8276  165.2442 C.3     1  UNL1        0.1254
     12 N         140.7287  141.9237  166.4374 N.am    1  UNL1       -0.2542
     13 C         141.3436  142.3353  167.7422 C.ar    1  UNL1        0.0540
     14 C         142.7657  141.9703  168.0494 C.ar    1  UNL1        0.0149
     15 C         143.3805  142.3819  169.3542 C.ar    1  UNL1        0.0013
     16 C         142.5734  143.1586  170.3518 C.ar    1  UNL1        0.0001
     17 C         141.1512  143.5238  170.0445 C.ar    1  UNL1        0.0013
     18 C         140.5364  143.1121  168.7397 C.ar    1  UNL1        0.0149
     19 C         138.6897  138.8811  164.9094 C.3     1  UNL1        0.1814
     20 O         139.4768  137.6073  164.8212 O.3     1  UNL1       -0.3459
     21 C         140.5410  137.4542  163.7753 C.3     1  UNL1        0.1687
     22 C         141.8930  138.0689  163.9854 C.ar    1  UNL1        0.0073
     23 C         142.6745  138.5813  162.8120 C.ar    1  UNL1       -0.0019
     24 C         144.0265  139.1961  163.0221 C.ar    1  UNL1       -0.0002
     25 C         144.5971  139.2985  164.4055 C.ar    1  UNL1       -0.0000
     26 C         143.8156  138.7861  165.5788 C.ar    1  UNL1       -0.0002
     27 C         142.4636  138.1714  165.3688 C.ar    1  UNL1       -0.0019
     28 C         140.5028  145.1274  160.3599 C.3     1  UNL1        0.0768
     29 C         141.5410  144.8717  159.3079 C.3     1  UNL1        0.0437
     30 C         142.1927  143.5242  159.2091 C.ar    1  UNL1       -0.0208
     31 C         143.3009  143.1561  160.1506 C.ar    1  UNL1       -0.0042
     32 C         143.9524  141.8087  160.0518 C.ar    1  UNL1       -0.0003
     33 C         143.4958  140.8293  159.0115 C.ar    1  UNL1       -0.0000
     34 C         142.3876  141.1973  158.0700 C.ar    1  UNL1       -0.0003
     35 C         141.7360  142.5447  158.1689 C.ar    1  UNL1       -0.0042
@<TRIPOS>BOND
     1     1     2    2
     2     2     3    1
     3     3    19    1
     4    19    20    1
     5    20    21    1
     6    21    22    1
     7    22    23   ar
     8    23    24   ar
     9    24    25   ar
    10    25    26   ar
    11    26    27   ar
    12     3     4    1
    13     4     5    1
    14     5     6    1
    15     6     7    1
    16     7     8    1
    17     8    28    1
    18    28    29    1
    19    29    30    1
    20    30    31   ar
    21    31    32   ar
    22    32    33   ar
    23    33    34   ar
    24    34    35   ar
    25     8     9    1
    26     9    10    1
    27     5    11    1
    28    11    12    1
    29    12    13    1
    30    13    14   ar
    31    14    15   ar
    32    15    16   ar
    33    16    17   ar
    34    17    18   ar
    35    12     2   am
    36    18    13   ar
    37    27    22   ar
    38    10     5    1
    39    35    30   ar
@<TRIPOS>MOLECULE
*****
 35 39 0 0 0
SMALL
GASTEIGER

@<TRIPOS>ATOM
      1 O         142.6601  145.0575  157.9925 O.2     1  UNL1       -0.2718
      2 C         142.1977  143.8579  158.7652 C.2     1  UNL1        0.2592
      3 C         141.0763  143.9885  159.7528 C.3     1  UNL1        0.2208
      4 O         140.6138  142.7890  160.5256 O.3     1  UNL1       -0.3478
      5 C         141.2728  141.4587  160.3107 C.3     1  UNL1        0.1146
      6 C         141.9317  140.1284  160.0958 C.3     1  UNL1        0.0463
      7 C         141.4693  138.9289  160.8685 C.3     1  UNL1        0.0746
      8 N         140.3479  139.0596  161.8561 N.3     1  UNL1       -0.2722
      9 C         139.6889  140.3898  162.0710 C.3     1  UNL1        0.0746
     10 C         140.1514  141.5893  161.2983 C.3     1  UNL1        0.0463
     11 C         142.3942  141.3280  159.3231 C.3     1  UNL1        0.1254
     12 N         142.8566  142.5276  158.5503 N.am    1  UNL1       -0.2542
     13 C         143.9780  142.3970  157.5627 C.ar    1  UNL1        0.0540
     14 C         145.3989  142.5575  158.0157 C.ar    1  UNL1        0.0149
     15 C         146.5203  142.4268  157.0281 C.ar    1  UNL1        0.0013
     16 C         146.2208  142.1356  155.5875 C.ar    1  UNL1        0.0001
     17 C         144.7999  141.9751  155.1344 C.ar    1  UNL1        0.0013
     18 C         143.6785  142.1058  156.1220 C.ar    1  UNL1        0.0149
     19 C         140.4173  145.3189  159.9677 C.3     1  UNL1        0.1814
     20 O         140.4391  145.9560  161.3255 O.3     1  UNL1       -0.3459
     21 C         139.2612  145.8079  162.2424 C.3     1  UNL1        0.1687
     22 C         139.2042  144.6644  163.2114 C.ar    1  UNL1        0.0073
     23 C         140.4399  144.2462  163.9517 C.ar    1  UNL1       -0.0019
     24 C         140.3829  143.1027  164.9207 C.ar    1  UNL1       -0.0002
     25 C         139.0901  142.3772  165.1494 C.ar    1  UNL1       -0.0000
     26 C         137.8544  142.7953  164.4092 C.ar    1  UNL1       -0.0002
     27 C         137.9114  143.9389  163.4401 C.ar    1  UNL1       -0.0019
     28 C         139.8854  137.8599  162.6289 C.3     1  UNL1        0.0768
     29 C         138.8649  138.0164  163.7169 C.3     1  UNL1        0.0437
     30 C         139.2591  138.6151  165.0346 C.ar    1  UNL1       -0.0208
     31 C         138.2235  138.8396  166.0962 C.ar    1  UNL1       -0.0042
     32 C         138.6178  139.4383  167.4138 C.ar    1  UNL1       -0.0003
     33 C         140.0476  139.8125  167.6698 C.ar    1  UNL1       -0.0000
     34 C         141.0832  139.5880  166.6082 C.ar    1  UNL1       -0.0003
     35 C         140.6890  138.9893  165.2906 C.ar    1  UNL1       -0.0042
@<TRIPOS>BOND
     1     1     2    2
     2     2     3    1
     3     3    19    1
     4    19    20    1
     5    20    21    1
     6    21    22    1
     7    22    23   ar
     8    23    24   ar
     9    24    25   ar
    10    25    26   ar
    11    26    27   ar
    12     3     4    1
    13     4     5    1
    14     5     6    1
    15     6     7    1
    16     7     8    1
    17     8    28    1
    18    28    29    1
    19    29    30    1
    20    30    31   ar
    21    31    32   ar
    22    32    33   ar
    23    33    34   ar
    24    34    35   ar
    25     8     9    1
    26     9    10    1
    27     5    11    1
    28    11    12    1
    29    12    13    1
    30    13    14   ar
    31    14    15   ar
    32    15    16   ar
    33    16    17   ar
    34    17    18   ar
    35    12     2   am
    36    18    13   ar
    37    27    22   ar
    38    10     5    1
    39    35    30   ar
@<TRIPOS>MOLECULE
*****
 35 39 0 0 0
SMALL
GASTEIGER

@<TRIPOS>ATOM
      1 O         143.0679  139.9608  168.2744 O.2     1  UNL1       -0.2718
      2 C         142.1480  139.8502  167.0947 C.2     1  UNL1        0.2592
      3 C         142.5561  139.0425  165.8984 C.3     1  UNL1        0.2208
      4 O         141.6362  138.9319  164.7188 O.3     1  UNL1       -0.3478
      5 C         140.3082  139.6291  164.7354 C.3     1  UNL1        0.1146
      6 C         138.9802  140.3263  164.7520 C.3     1  UNL1        0.0463
      7 C         138.0603  140.2157  163.5723 C.3     1  UNL1        0.0746
      8 N         138.4684  139.4080  162.3761 N.3     1  UNL1       -0.2722
      9 C         139.7964  138.7108  162.3595 C.3     1  UNL1        0.0746
     10 C         140.7163  138.8214  163.5391 C.3     1  UNL1        0.0463
     11 C         139.9000  140.4369  165.9316 C.3     1  UNL1        0.1254
     12 N         140.8200  140.5474  167.1113 N.am    1  UNL1       -0.2542
     13 C         140.4118  141.3551  168.3075 C.ar    1  UNL1        0.0540
     14 C         139.5674  140.7331  169.3799 C.ar    1  UNL1        0.0149
     15 C         139.1593  141.5408  170.5761 C.ar    1  UNL1        0.0013
     16 C         139.5955  142.9706  170.7000 C.ar    1  UNL1        0.0001
     17 C         140.4400  143.5927  169.6276 C.ar    1  UNL1        0.0013
     18 C         140.8481  142.7850  168.4313 C.ar    1  UNL1        0.0149
     19 C         143.8842  138.3453  165.8819 C.3     1  UNL1        0.1814
     20 O         145.0285  138.9299  165.1082 O.3     1  UNL1       -0.3459
     21 C         144.8247  139.3782  163.6914 C.3     1  UNL1        0.1687
     22 C         144.6554  140.8364  163.3830 C.ar    1  UNL1        0.0073
     23 C         144.6347  141.3042  161.9580 C.ar    1  UNL1       -0.0019
     24 C         144.4654  142.7624  161.6497 C.ar    1  UNL1       -0.0002
     25 C         144.3167  143.7527  162.7664 C.ar    1  UNL1       -0.0000
     26 C         144.3373  143.2849  164.1914 C.ar    1  UNL1       -0.0002
     27 C         144.5067  141.8267  164.4997 C.ar    1  UNL1       -0.0019
     28 C         137.5485  139.2974  161.1964 C.3     1  UNL1        0.0768
     29 C         137.7860  140.1403  159.9786 C.3     1  UNL1        0.0437
     30 C         138.8605  141.1869  159.9886 C.ar    1  UNL1       -0.0208
     31 C         138.5922  142.5314  160.5971 C.ar    1  UNL1       -0.0042
     32 C         139.6668  143.5779  160.6072 C.ar    1  UNL1       -0.0003
     33 C         141.0096  143.2799  160.0088 C.ar    1  UNL1       -0.0000
     34 C         141.2779  141.9354  159.4003 C.ar    1  UNL1       -0.0003
     35 C         140.2033  140.8889  159.3903 C.ar    1  UNL1       -0.0042
@<TRIPOS>BOND
     1     1     2    2
     2     2     3    1
     3     3    19    1
     4    19    20    1
     5    20    21    1
     6    21    22    1
     7    22    23   ar
     8    23    24   ar
     9    24    25   ar
    10    25    26   ar
    11    26    27   ar
    12     3     4    1
    13     4     5    1
    14     5     6    1
    15     6     7    1
    16     7     8    1
    17     8    28    1
    18    28    29    1
    19    29    30    1
    20    30    31   ar
    21    31    32   ar
    22    32    33   ar
    23    33    34   ar
    24    34    35   ar
    25     8     9    1
    26     9    10    1
    27     5    11    1
    28    11    12    1
    29    12    13    1
    30    13    14   ar
    31    14    15   ar
    32    15    16   ar
    33    16    17   ar
    34    17    18   ar
    35    12     2   am
    36    18    13   ar
    37    27    22   ar
    38    10     5    1
    39    35    30   ar
@<TRIPOS>MOLECULE
*****
 35 39 0 0 0
SMALL
GASTEIGER

@<TRIPOS>ATOM
      1 O         140.9099  141.1931  161.7474 O.2     1  UNL1       -0.2718
      2 C         140.5716  142.0923  160.5954 C.2     1  UNL1        0.2592
      3 C         139.7264  141.5798  159.4671 C.3     1  UNL1        0.2208
      4 O         139.3881  142.4789  158.3151 O.3     1  UNL1       -0.3478
      5 C         139.8950  143.8905  158.2914 C.3     1  UNL1        0.1146
      6 C         140.4019  145.3021  158.2677 C.3     1  UNL1        0.0463
      7 C         140.0636  146.2012  157.1157 C.3     1  UNL1        0.0746
      8 N         139.2184  145.6887  155.9874 N.3     1  UNL1       -0.2722
      9 C         138.7115  144.2772  156.0111 C.3     1  UNL1        0.0746
     10 C         139.0498  143.3781  157.1630 C.3     1  UNL1        0.0463
     11 C         140.7402  144.4030  159.4197 C.3     1  UNL1        0.1254
     12 N         141.0785  143.5038  160.5717 N.am    1  UNL1       -0.2542
     13 C         141.9237  144.0162  161.7000 C.ar    1  UNL1        0.0540
     14 C         143.3811  143.6674  161.7637 C.ar    1  UNL1        0.0149
     15 C         144.2263  144.1799  162.8920 C.ar    1  UNL1        0.0013
     16 C         143.6140  145.0411  163.9566 C.ar    1  UNL1        0.0001
     17 C         142.1565  145.3899  163.8929 C.ar    1  UNL1        0.0013
     18 C         141.3113  144.8775  162.7646 C.ar    1  UNL1        0.0149
     19 C         139.2195  140.1682  159.4908 C.3     1  UNL1        0.1814
     20 O         138.2220  139.7469  160.5288 O.3     1  UNL1       -0.3459
     21 C         138.5140  138.5740  161.4171 C.3     1  UNL1        0.1687
     22 C         138.5150  138.7439  162.9075 C.ar    1  UNL1        0.0073
     23 C         138.8848  137.5914  163.7934 C.ar    1  UNL1       -0.0019
     24 C         138.8858  137.7612  165.2838 C.ar    1  UNL1       -0.0002
     25 C         138.5170  139.0836  165.8882 C.ar    1  UNL1       -0.0000
     26 C         138.1472  140.2360  165.0022 C.ar    1  UNL1       -0.0002
     27 C         138.1462  140.0662  163.5119 C.ar    1  UNL1       -0.0019
     28 C         138.8801  146.5879  154.8353 C.3     1  UNL1        0.0768
     29 C         139.8643  147.6233  154.3779 C.3     1  UNL1        0.0437
     30 C         139.5202  149.0801  154.4752 C.ar    1  UNL1       -0.0208
     31 C         139.9591  150.0279  153.3987 C.ar    1  UNL1       -0.0042
     32 C         139.6149  151.4846  153.4960 C.ar    1  UNL1       -0.0003
     33 C         138.8318  151.9935  154.6699 C.ar    1  UNL1       -0.0000
     34 C         138.3929  151.0456  155.7463 C.ar    1  UNL1       -0.0003
     35 C         138.7370  149.5889  155.6490 C.ar    1  UNL1       -0.0042
@<TRIPOS>BOND
     1     1     2    2
     2     2     3    1
     3     3    19    1
     4    19    20    1
     5    20    21    1
     6    21    22    1
     7    22    23   ar
     8    23    24   ar
     9    24    25   ar
    10    25    26   ar
    11    26    27   ar
    12     3     4    1
    13     4     5    1
    14     5     6    1
    15     6     7    1
    16     7     8    1
    17     8    28    1
    18    28    29    1
    19    29    30    1
    20    30    31   ar
    21    31    32   ar
    22    32    33   ar
    23    33    34   ar
    24    34    35   ar
    25     8     9    1
    26     9    10    1
    27     5    11    1
    28    11    12    1
    29    12    13    1
    30    13    14   ar
    31    14    15   ar
    32    15    16   ar
    33    16    17   ar
    34    17    18   ar
    35    12     2   am
    36    18    13   ar
    37    27    22   ar
    38    10     5    1
    39    35    30   ar
@<TRIPOS>MOLECULE
*****
 35 39 0 0 0
SMALL
GASTEIGER

@<TRIPOS>ATOM
      1 O         141.8838  141.3097  165.2578 O.2     1  UNL1       -0.2718
      2 C         141.8774  140.6651  163.9033 C.2     1  UNL1        0.2592
      3 C         142.8965  139.6172  163.5667 C.3     1  UNL1        0.2208
      4 O         142.8901  138.9726  162.2123 O.3     1  UNL1       -0.3478
      5 C         141.8646  139.3759  161.1945 C.3     1  UNL1        0.1146
      6 C         140.8392  139.7792  160.1768 C.3     1  UNL1        0.0463
      7 C         140.8328  139.1346  158.8224 C.3     1  UNL1        0.0746
      8 N         141.8519  138.0867  158.4857 N.3     1  UNL1       -0.2722
      9 C         142.8773  137.6833  159.5034 C.3     1  UNL1        0.0746
     10 C         142.8837  138.3280  160.8578 C.3     1  UNL1        0.0463
     11 C         140.8456  140.4238  161.5312 C.3     1  UNL1        0.1254
     12 N         140.8520  141.0684  162.8856 N.am    1  UNL1       -0.2542
     13 C         139.8329  142.1163  163.2223 C.ar    1  UNL1        0.0540
     14 C         138.5034  141.7149  163.7891 C.ar    1  UNL1        0.0149
     15 C         137.4843  142.7628  164.1258 C.ar    1  UNL1        0.0013
     16 C         137.7947  144.2122  163.8957 C.ar    1  UNL1        0.0001
     17 C         139.1243  144.6137  163.3289 C.ar    1  UNL1        0.0013
     18 C         140.1433  143.5657  162.9922 C.ar    1  UNL1        0.0149
     19 C         143.9220  139.2139  164.5844 C.3     1  UNL1        0.1814
     20 O         145.2347  139.9364  164.6534 O.3     1  UNL1       -0.3459
     21 C         145.5686  140.9842  163.6334 C.3     1  UNL1        0.1687
     22 C         144.9432  142.3447  163.7233 C.ar    1  UNL1        0.0073
     23 C         144.8151  143.0248  165.0541 C.ar    1  UNL1       -0.0019
     24 C         144.1896  144.3852  165.1440 C.ar    1  UNL1       -0.0002
     25 C         143.6923  145.0655  163.9031 C.ar    1  UNL1       -0.0000
     26 C         143.8204  144.3854  162.5724 C.ar    1  UNL1       -0.0002
     27 C         144.4458  143.0250  162.4825 C.ar    1  UNL1       -0.0019
     28 C         141.8455  137.4420  157.1313 C.3     1  UNL1        0.0768
     29 C         142.9709  136.5369  156.7261 C.3     1  UNL1        0.0437
     30 C         142.7091  135.0816  156.4734 C.ar    1  UNL1       -0.0208
     31 C         141.6642  134.6691  155.4795 C.ar    1  UNL1       -0.0042
     32 C         141.4025  133.2139  155.2268 C.ar    1  UNL1       -0.0003
     33 C         142.1857  132.1713  155.9681 C.ar    1  UNL1       -0.0000
     34 C         143.2306  132.5838  156.9620 C.ar    1  UNL1       -0.0003
     35 C         143.4923  134.0390  157.2146 C.ar    1  UNL1       -0.0042
@<TRIPOS>BOND
     1     1     2    2
     2     2     3    1
     3     3    19    1
     4    19    20    1
     5    20    21    1
     6    21    22    1
     7    22    23   ar
     8    23    24   ar
     9    24    25   ar
    10    25    26   ar
    11    26    27   ar
    12     3     4    1
    13     4     5    1
    14     5     6    1
    15     6     7    1
    16     7     8    1
    17     8    28    1
    18    28    29    1
    19    29    30    1
    20    30    31   ar
    21    31    32   ar
    22    32    33   ar
    23    33    34   ar
    24    34    35   ar
    25     8     9    1
    26     9    10    1
    27     5    11    1
    28    11    12    1
    29    12    13    1
    30    13    14   ar
    31    14    15   ar
    32    15    16   ar
    33    16    17   ar
    34    17    18   ar
    35    12     2   am
    36    18    13   ar
    37    27    22   ar
    38    10     5    1
    39    35    30   ar
@<TRIPOS>MOLECULE
*****
 35 39 0 0 0
SMALL
GASTEIGER

@<TRIPOS>ATOM
      1 O         142.1764  141.8028  163.5154 O.2     1  UNL1       -0.2718
      2 C         142.4304  141.1747  162.1771 C.2     1  UNL1        0.2592
      3 C         143.2715  141.8889  161.1609 C.3     1  UNL1        0.2208
      4 O         143.5255  141.2608  159.8226 O.3     1  UNL1       -0.3478
      5 C         142.9384  139.9185  159.5005 C.3     1  UNL1        0.1146
      6 C         142.3514  138.5763  159.1784 C.3     1  UNL1        0.0463
      7 C         142.6054  137.9483  157.8401 C.3     1  UNL1        0.0746
      8 N         143.4464  138.6625  156.8239 N.3     1  UNL1       -0.2722
      9 C         144.0335  140.0047  157.1460 C.3     1  UNL1        0.0746
     10 C         143.7795  140.6327  158.4843 C.3     1  UNL1        0.0463
     11 C         142.0974  139.2044  160.5166 C.3     1  UNL1        0.1254
     12 N         141.8434  139.8325  161.8550 N.am    1  UNL1       -0.2542
     13 C         141.0023  139.1183  162.8711 C.ar    1  UNL1        0.0540
     14 C         141.5774  137.9713  163.6481 C.ar    1  UNL1        0.0149
     15 C         140.7364  137.2572  164.6643 C.ar    1  UNL1        0.0013
     16 C         139.3203  137.6899  164.9035 C.ar    1  UNL1        0.0001
     17 C         138.7451  138.8370  164.1265 C.ar    1  UNL1        0.0013
     18 C         139.5862  139.5511  163.1103 C.ar    1  UNL1        0.0149
     19 C         143.8585  143.2312  161.4830 C.3     1  UNL1        0.1814
     20 O         142.9568  144.3909  161.7863 O.3     1  UNL1       -0.3459
     21 C         141.6195  144.4966  161.1152 C.3     1  UNL1        0.1687
     22 C         140.3642  144.2716  161.9049 C.ar    1  UNL1        0.0073
     23 C         140.1564  144.9915  163.2043 C.ar    1  UNL1       -0.0019
     24 C         138.9011  144.7664  163.9940 C.ar    1  UNL1       -0.0002
     25 C         137.8536  143.8215  163.4843 C.ar    1  UNL1       -0.0000
     26 C         138.0614  143.1016  162.1849 C.ar    1  UNL1       -0.0002
     27 C         139.3167  143.3266  161.3952 C.ar    1  UNL1       -0.0019
     28 C         143.7004  138.0344  155.4856 C.3     1  UNL1        0.0768
     29 C         144.3963  136.7084  155.3994 C.3     1  UNL1        0.0437
     30 C         143.5995  135.4385  155.4499 C.ar    1  UNL1       -0.0208
     31 C         142.7028  135.0696  154.3054 C.ar    1  UNL1       -0.0042
     32 C         141.9061  133.7998  154.3560 C.ar    1  UNL1       -0.0003
     33 C         142.0059  132.8988  155.5511 C.ar    1  UNL1       -0.0000
     34 C         142.9026  133.2676  156.6956 C.ar    1  UNL1       -0.0003
     35 C         143.6994  134.5375  156.6450 C.ar    1  UNL1       -0.0042
@<TRIPOS>BOND
     1     1     2    2
     2     2     3    1
     3     3    19    1
     4    19    20    1
     5    20    21    1
     6    21    22    1
     7    22    23   ar
     8    23    24   ar
     9    24    25   ar
    10    25    26   ar
    11    26    27   ar
    12     3     4    1
    13     4     5    1
    14     5     6    1
    15     6     7    1
    16     7     8    1
    17     8    28    1
    18    28    29    1
    19    29    30    1
    20    30    31   ar
    21    31    32   ar
    22    32    33   ar
    23    33    34   ar
    24    34    35   ar
    25     8     9    1
    26     9    10    1
    27     5    11    1
    28    11    12    1
    29    12    13    1
    30    13    14   ar
    31    14    15   ar
    32    15    16   ar
    33    16    17   ar
    34    17    18   ar
    35    12     2   am
    36    18    13   ar
    37    27    22   ar
    38    10     5    1
    39    35    30   ar
