@<TRIPOS>MOLECULE
*****
 31 33 0 0 0
SMALL
GASTEIGER

@<TRIPOS>ATOM
      1 N         139.1358  139.8817  166.7789 N.3     1  UNL1       -0.2659
      2 C         139.3127  140.9264  165.7172 C.3     1  UNL1        0.0614
      3 C         140.6127  141.6655  165.6014 C.3     1  UNL1        0.0375
      4 C         140.7896  142.7103  164.5397 C.3     1  UNL1        0.0950
      5 N         139.6663  143.0160  163.5938 N.pl3   1  UNL1       -0.2785
      6 C         138.3661  142.2768  163.7096 C.3     1  UNL1        0.0950
      7 C         138.1893  141.2321  164.7713 C.3     1  UNL1        0.0375
      8 C         139.8431  144.0607  162.5321 C.ar    1  UNL1        0.2163
      9 N         140.9465  144.1083  161.5170 N.ar    1  UNL1       -0.1804
     10 C         140.7329  145.3184  160.6566 C.ar    1  UNL1        0.2331
     11 N         141.6020  145.7519  159.5136 N.pl3   1  UNL1       -0.3262
     12 N         139.4976  146.0186  161.1400 N.ar    1  UNL1       -0.1354
     13 N         138.9477  145.2414  162.2991 N.ar    1  UNL1       -0.2450
     14 H         142.3962  145.2232  159.2709 H       1  UNL1        0.1452
     15 H         141.3783  146.5653  159.0060 H       1  UNL1        0.1452
     16 H         138.1407  145.4666  162.8161 H       1  UNL1        0.1919
     17 C         140.0040  139.9008  168.0019 C.3     1  UNL1        0.1584
     18 C         139.7414  142.8749  170.6165 C.3     1  UNL1        0.1107
     19 N         140.1538  142.0749  169.4166 N.am    1  UNL1       -0.3015
     20 C         139.5916  140.7008  169.2019 C.2     1  UNL1        0.2389
     21 O         138.6171  140.1269  170.1872 O.2     1  UNL1       -0.2736
     22 H         140.7934  142.4516  168.7699 H       1  UNL1        0.1495
     23 C         138.0908  138.8177  166.6175 C.3     1  UNL1        0.0772
     24 C         138.4007  137.5742  165.8380 C.3     1  UNL1        0.0437
     25 C         139.2976  137.6454  164.6377 C.ar    1  UNL1       -0.0207
     26 C         140.7804  137.4871  164.7991 C.ar    1  UNL1       -0.0034
     27 C         141.6773  137.5583  163.5989 C.ar    1  UNL1        0.0111
     28 C         141.0913  137.7877  162.2373 C.ar    1  UNL1        0.0577
     29 CL        141.9882  137.8588  161.0370 Cl      1  UNL1       -0.0822
     30 C         139.6084  137.9459  162.0759 C.ar    1  UNL1        0.0111
     31 C         138.7116  137.8747  163.2761 C.ar    1  UNL1       -0.0034
@<TRIPOS>BOND
     1    18    19    1
     2    19    20   am
     3    20    21    2
     4    20    17    1
     5    17     1    1
     6     1    23    1
     7    23    24    1
     8    24    25    1
     9    25    26   ar
    10    26    27   ar
    11    27    28   ar
    12    28    29    1
    13    28    30   ar
    14    30    31   ar
    15     1     2    1
    16     2     3    1
    17     3     4    1
    18     4     5    1
    19     5     8    1
    20     8     9   ar
    21     9    10   ar
    22    10    11    1
    23    10    12   ar
    24    12    13   ar
    25     5     6    1
    26     6     7    1
    27    31    25   ar
    28     7     2    1
    29    13     8   ar
    30    19    22    1
    31    11    14    1
    32    11    15    1
    33    13    16    1
@<TRIPOS>MOLECULE
*****
 31 33 0 0 0
SMALL
GASTEIGER

@<TRIPOS>ATOM
      1 N         138.4881  139.6036  164.4020 N.3     1  UNL1       -0.2659
      2 C         139.1420  140.1595  165.6322 C.3     1  UNL1        0.0614
      3 C         138.9365  139.4897  166.9585 C.3     1  UNL1        0.0375
      4 C         139.5904  140.0455  168.1887 C.3     1  UNL1        0.0950
      5 N         140.4498  141.2711  168.0927 N.pl3   1  UNL1       -0.2785
      6 C         140.6553  141.9410  166.7663 C.3     1  UNL1        0.0950
      7 C         140.0015  141.3851  165.5361 C.3     1  UNL1        0.0375
      8 C         141.1037  141.8269  169.3229 C.ar    1  UNL1        0.2163
      9 N         142.2022  142.8480  169.3528 N.ar    1  UNL1       -0.1804
     10 C         142.5513  143.1114  170.7876 C.ar    1  UNL1        0.2331
     11 N         143.5991  144.0655  171.2792 N.pl3   1  UNL1       -0.3262
     12 N         141.6686  142.2532  171.6446 N.ar    1  UNL1       -0.1354
     13 N         140.7740  141.4593  170.7393 N.ar    1  UNL1       -0.2450
     14 H         144.1304  144.5876  170.6355 H       1  UNL1        0.1452
     15 H         143.7556  144.1697  172.2456 H       1  UNL1        0.1452
     16 H         140.0903  140.8109  171.0247 H       1  UNL1        0.1919
     17 C         137.6951  140.5043  163.5021 C.3     1  UNL1        0.1584
     18 C         137.7822  140.1275  159.5524 C.3     1  UNL1        0.1107
     19 N         137.3732  139.9493  160.9844 N.am    1  UNL1       -0.3015
     20 C         138.1041  140.6825  162.0700 C.2     1  UNL1        0.2389
     21 O         139.2439  141.5939  161.7234 O.2     1  UNL1       -0.2736
     22 H         136.6251  139.3511  161.2119 H       1  UNL1        0.1495
     23 C         138.6273  138.1470  164.0716 C.3     1  UNL1        0.0772
     24 C         139.8480  137.6544  163.3525 C.3     1  UNL1        0.0437
     25 C         141.1757  138.3096  163.5931 C.ar    1  UNL1       -0.0207
     26 C         141.7137  139.2998  162.6032 C.ar    1  UNL1       -0.0034
     27 C         143.0414  139.9550  162.8438 C.ar    1  UNL1        0.0111
     28 C         143.8312  139.6198  164.0742 C.ar    1  UNL1        0.0577
     29 CL        145.1590  140.2750  164.3148 Cl      1  UNL1       -0.0822
     30 C         143.2932  138.6295  165.0641 C.ar    1  UNL1        0.0111
     31 C         141.9655  137.9744  164.8235 C.ar    1  UNL1       -0.0034
@<TRIPOS>BOND
     1    18    19    1
     2    19    20   am
     3    20    21    2
     4    20    17    1
     5    17     1    1
     6     1    23    1
     7    23    24    1
     8    24    25    1
     9    25    26   ar
    10    26    27   ar
    11    27    28   ar
    12    28    29    1
    13    28    30   ar
    14    30    31   ar
    15     1     2    1
    16     2     3    1
    17     3     4    1
    18     4     5    1
    19     5     8    1
    20     8     9   ar
    21     9    10   ar
    22    10    11    1
    23    10    12   ar
    24    12    13   ar
    25     5     6    1
    26     6     7    1
    27    31    25   ar
    28     7     2    1
    29    13     8   ar
    30    19    22    1
    31    11    14    1
    32    11    15    1
    33    13    16    1
@<TRIPOS>MOLECULE
*****
 31 33 0 0 0
SMALL
GASTEIGER

@<TRIPOS>ATOM
      1 N         139.0101  138.8594  163.1937 N.3     1  UNL1       -0.2659
      2 C         139.3300  139.2541  164.6051 C.3     1  UNL1        0.0614
      3 C         138.4072  138.8625  165.7209 C.3     1  UNL1        0.0375
      4 C         138.7271  139.2571  167.1322 C.3     1  UNL1        0.0950
      5 N         139.9698  140.0434  167.4277 N.pl3   1  UNL1       -0.2785
      6 C         140.8927  140.4351  166.3119 C.3     1  UNL1        0.0950
      7 C         140.5728  140.0404  164.9006 C.3     1  UNL1        0.0375
      8 C         140.2897  140.4381  168.8391 C.ar    1  UNL1        0.2163
      9 N         141.2941  141.4697  169.2600 N.ar    1  UNL1       -0.1804
     10 C         141.2865  141.5396  170.7584 C.ar    1  UNL1        0.2331
     11 N         142.1384  142.4399  171.6033 N.pl3   1  UNL1       -0.3262
     12 N         140.2776  140.5512  171.2635 N.ar    1  UNL1       -0.1354
     13 N         139.6615  139.8705  170.0773 N.ar    1  UNL1       -0.2450
     14 H         142.7750  143.0579  171.1768 H       1  UNL1        0.1452
     15 H         142.0609  142.4127  172.5844 H       1  UNL1        0.1452
     16 H         138.9668  139.1735  170.1063 H       1  UNL1        0.1919
     17 C         139.7307  137.7095  162.5548 C.3     1  UNL1        0.1584
     18 C         143.5273  137.8065  161.4031 C.3     1  UNL1        0.1107
     19 N         142.3045  137.5562  162.2350 N.am    1  UNL1       -0.3015
     20 C         140.9535  137.9597  161.7229 C.2     1  UNL1        0.2389
     21 O         140.8254  138.6135  160.3790 O.2     1  UNL1       -0.2736
     22 H         142.3886  137.1272  163.1171 H       1  UNL1        0.1495
     23 C         137.9694  139.6148  162.4213 C.3     1  UNL1        0.0772
     24 C         137.3663  140.8617  162.9967 C.3     1  UNL1        0.0437
     25 C         138.0226  142.1899  162.7617 C.ar    1  UNL1       -0.0207
     26 C         137.8223  143.3091  163.7400 C.ar    1  UNL1       -0.0034
     27 C         138.4786  144.6372  163.5049 C.ar    1  UNL1        0.0111
     28 C         139.3352  144.8461  162.2914 C.ar    1  UNL1        0.0577
     29 CL        139.9916  146.1743  162.0563 Cl      1  UNL1       -0.0822
     30 C         139.5355  143.7270  161.3130 C.ar    1  UNL1        0.0111
     31 C         138.8792  142.3988  161.5481 C.ar    1  UNL1       -0.0034
@<TRIPOS>BOND
     1    18    19    1
     2    19    20   am
     3    20    21    2
     4    20    17    1
     5    17     1    1
     6     1    23    1
     7    23    24    1
     8    24    25    1
     9    25    26   ar
    10    26    27   ar
    11    27    28   ar
    12    28    29    1
    13    28    30   ar
    14    30    31   ar
    15     1     2    1
    16     2     3    1
    17     3     4    1
    18     4     5    1
    19     5     8    1
    20     8     9   ar
    21     9    10   ar
    22    10    11    1
    23    10    12   ar
    24    12    13   ar
    25     5     6    1
    26     6     7    1
    27    31    25   ar
    28     7     2    1
    29    13     8   ar
    30    19    22    1
    31    11    14    1
    32    11    15    1
    33    13    16    1
@<TRIPOS>MOLECULE
*****
 31 33 0 0 0
SMALL
GASTEIGER

@<TRIPOS>ATOM
      1 N         140.1075  138.0889  164.3783 N.3     1  UNL1       -0.2659
      2 C         140.4660  138.8899  165.5948 C.3     1  UNL1        0.0614
      3 C         139.3849  139.4180  166.4905 C.3     1  UNL1        0.0375
      4 C         139.7434  140.2190  167.7069 C.3     1  UNL1        0.0950
      5 N         141.1831  140.4921  168.0277 N.pl3   1  UNL1       -0.2785
      6 C         142.2643  139.9640  167.1319 C.3     1  UNL1        0.0950
      7 C         141.9057  139.1629  165.9155 C.3     1  UNL1        0.0375
      8 C         141.5416  141.2931  169.2441 C.ar    1  UNL1        0.2163
      9 N         142.5461  142.4056  169.3027 N.ar    1  UNL1       -0.1804
     10 C         142.5839  142.9224  170.7104 C.ar    1  UNL1        0.2331
     11 N         143.4506  144.0366  171.2175 N.pl3   1  UNL1       -0.3262
     12 N         141.6027  142.1293  171.5218 N.ar    1  UNL1       -0.1354
     13 N         140.9586  141.1224  170.6156 N.ar    1  UNL1       -0.2450
     14 H         144.0665  144.4993  170.6044 H       1  UNL1        0.1452
     15 H         143.4037  144.3052  172.1635 H       1  UNL1        0.1452
     16 H         140.2734  140.4649  170.8754 H       1  UNL1        0.1919
     17 C         141.1425  137.2303  163.7138 C.3     1  UNL1        0.1584
     18 C         143.9218  138.6731  161.2759 C.3     1  UNL1        0.1107
     19 N         143.2407  138.1960  162.5242 N.am    1  UNL1       -0.3015
     20 C         141.8237  137.7074  162.4655 C.2     1  UNL1        0.2389
     21 O         141.0879  137.6958  161.1584 O.2     1  UNL1       -0.2736
     22 H         143.7236  138.2036  163.3821 H       1  UNL1        0.1495
     23 C         138.7139  138.1464  163.8264 C.3     1  UNL1        0.0772
     24 C         138.3539  139.1846  162.8053 C.3     1  UNL1        0.0437
     25 C         138.6036  140.6358  163.0911 C.ar    1  UNL1       -0.0207
     26 C         139.9151  141.2593  162.7154 C.ar    1  UNL1       -0.0034
     27 C         140.1648  142.7105  163.0011 C.ar    1  UNL1        0.0111
     28 C         139.1030  143.5382  163.6625 C.ar    1  UNL1        0.0577
     29 CL        139.3527  144.9895  163.9482 Cl      1  UNL1       -0.0822
     30 C         137.7915  142.9147  164.0382 C.ar    1  UNL1        0.0111
     31 C         137.5418  141.4635  163.7525 C.ar    1  UNL1       -0.0034
@<TRIPOS>BOND
     1    18    19    1
     2    19    20   am
     3    20    21    2
     4    20    17    1
     5    17     1    1
     6     1    23    1
     7    23    24    1
     8    24    25    1
     9    25    26   ar
    10    26    27   ar
    11    27    28   ar
    12    28    29    1
    13    28    30   ar
    14    30    31   ar
    15     1     2    1
    16     2     3    1
    17     3     4    1
    18     4     5    1
    19     5     8    1
    20     8     9   ar
    21     9    10   ar
    22    10    11    1
    23    10    12   ar
    24    12    13   ar
    25     5     6    1
    26     6     7    1
    27    31    25   ar
    28     7     2    1
    29    13     8   ar
    30    19    22    1
    31    11    14    1
    32    11    15    1
    33    13    16    1
@<TRIPOS>MOLECULE
*****
 31 33 0 0 0
SMALL
GASTEIGER

@<TRIPOS>ATOM
      1 N         138.0894  140.6757  163.2330 N.3     1  UNL1       -0.2659
      2 C         138.5590  140.5958  164.6554 C.3     1  UNL1        0.0614
      3 C         139.4715  141.6521  165.2044 C.3     1  UNL1        0.0375
      4 C         139.9411  141.5722  166.6267 C.3     1  UNL1        0.0950
      5 N         139.4981  140.4361  167.5001 N.pl3   1  UNL1       -0.2785
      6 C         138.5855  139.3797  166.9511 C.3     1  UNL1        0.0950
      7 C         138.1159  139.4596  165.5288 C.3     1  UNL1        0.0375
      8 C         139.9676  140.3562  168.9225 C.ar    1  UNL1        0.2163
      9 N         141.3836  140.5093  169.3935 N.ar    1  UNL1       -0.1804
     10 C         141.3947  140.3569  170.8857 C.ar    1  UNL1        0.2331
     11 N         142.6028  140.4377  171.7711 N.pl3   1  UNL1       -0.3262
     12 N         139.9857  140.1097  171.3369 N.ar    1  UNL1       -0.1354
     13 N         139.1038  140.1093  170.1236 N.ar    1  UNL1       -0.2450
     14 H         143.4903  140.6045  171.3790 H       1  UNL1        0.1452
     15 H         142.5082  140.3238  172.7444 H       1  UNL1        0.1452
     16 H         138.1291  139.9711  170.1168 H       1  UNL1        0.1919
     17 C         137.2909  141.8588  162.7721 C.3     1  UNL1        0.1584
     18 C         139.1740  145.3233  162.3230 C.3     1  UNL1        0.1107
     19 N         138.4840  144.1584  162.9687 N.am    1  UNL1       -0.3015
     20 C         137.9809  143.0237  162.1264 C.2     1  UNL1        0.2389
     21 O         138.1678  143.0539  160.6384 O.2     1  UNL1       -0.2736
     22 H         138.3613  144.1386  163.9453 H       1  UNL1        0.1495
     23 C         138.4184  139.5723  162.2715 C.3     1  UNL1        0.0772
     24 C         139.8481  139.2845  161.9209 C.3     1  UNL1        0.0437
     25 C         140.8416  138.9894  163.0054 C.ar    1  UNL1       -0.0207
     26 C         141.9469  139.9613  163.2947 C.ar    1  UNL1       -0.0034
     27 C         142.9403  139.6663  164.3791 C.ar    1  UNL1        0.0111
     28 C         142.8283  138.3993  165.1743 C.ar    1  UNL1        0.0577
     29 CL        143.8218  138.1043  166.2588 Cl      1  UNL1       -0.0822
     30 C         141.7230  137.4274  164.8851 C.ar    1  UNL1        0.0111
     31 C         140.7296  137.7225  163.8006 C.ar    1  UNL1       -0.0034
@<TRIPOS>BOND
     1    18    19    1
     2    19    20   am
     3    20    21    2
     4    20    17    1
     5    17     1    1
     6     1    23    1
     7    23    24    1
     8    24    25    1
     9    25    26   ar
    10    26    27   ar
    11    27    28   ar
    12    28    29    1
    13    28    30   ar
    14    30    31   ar
    15     1     2    1
    16     2     3    1
    17     3     4    1
    18     4     5    1
    19     5     8    1
    20     8     9   ar
    21     9    10   ar
    22    10    11    1
    23    10    12   ar
    24    12    13   ar
    25     5     6    1
    26     6     7    1
    27    31    25   ar
    28     7     2    1
    29    13     8   ar
    30    19    22    1
    31    11    14    1
    32    11    15    1
    33    13    16    1
@<TRIPOS>MOLECULE
*****
 31 33 0 0 0
SMALL
GASTEIGER

@<TRIPOS>ATOM
      1 N         144.0778  143.0420  163.7343 N.3     1  UNL1       -0.2659
      2 C         143.2018  142.7248  164.9098 C.3     1  UNL1        0.0614
      3 C         143.7632  142.7781  166.2997 C.3     1  UNL1        0.0375
      4 C         142.8871  142.4609  167.4752 C.3     1  UNL1        0.0950
      5 N         141.4496  142.0903  167.2608 N.pl3   1  UNL1       -0.2785
      6 C         140.8880  142.0369  165.8709 C.3     1  UNL1        0.0950
      7 C         141.7641  142.3542  164.6954 C.3     1  UNL1        0.0375
      8 C         140.5735  141.7730  168.4363 C.ar    1  UNL1        0.2163
      9 N         139.7933  140.5079  168.6385 N.ar    1  UNL1       -0.1804
     10 C         139.0614  140.6182  169.9432 C.ar    1  UNL1        0.2331
     11 N         138.1600  139.5779  170.5391 N.pl3   1  UNL1       -0.3262
     12 N         139.3892  141.9515  170.5473 N.ar    1  UNL1       -0.1354
     13 N         140.3237  142.6652  169.6160 N.ar    1  UNL1       -0.2450
     14 H         138.0061  138.7294  170.0641 H       1  UNL1        0.1452
     15 H         137.7222  139.7436  171.4052 H       1  UNL1        0.1452
     16 H         140.7060  143.5618  169.7547 H       1  UNL1        0.1919
     17 C         143.9998  144.3911  163.0832 C.3     1  UNL1        0.1584
     18 C         141.0254  145.1902  160.5805 C.3     1  UNL1        0.1107
     19 N         142.3356  144.6878  161.1103 N.am    1  UNL1       -0.3015
     20 C         142.6896  144.8934  162.5534 C.2     1  UNL1        0.2389
     21 O         141.7332  145.6015  163.4666 O.2     1  UNL1       -0.2736
     22 H         142.9633  144.2231  160.5109 H       1  UNL1        0.1495
     23 C         145.0320  142.0101  163.2099 C.3     1  UNL1        0.0772
     24 C         145.2584  140.7402  163.9754 C.3     1  UNL1        0.0437
     25 C         144.1645  139.7186  164.0737 C.ar    1  UNL1       -0.0207
     26 C         143.4719  139.2394  162.8325 C.ar    1  UNL1       -0.0034
     27 C         142.3780  138.2178  162.9309 C.ar    1  UNL1        0.0111
     28 C         141.9767  137.6754  164.2706 C.ar    1  UNL1        0.0577
     29 CL        140.8828  136.6537  164.3690 Cl      1  UNL1       -0.0822
     30 C         142.6693  138.1546  165.5119 C.ar    1  UNL1        0.0111
     31 C         143.7631  139.1762  165.4134 C.ar    1  UNL1       -0.0034
@<TRIPOS>BOND
     1    18    19    1
     2    19    20   am
     3    20    21    2
     4    20    17    1
     5    17     1    1
     6     1    23    1
     7    23    24    1
     8    24    25    1
     9    25    26   ar
    10    26    27   ar
    11    27    28   ar
    12    28    29    1
    13    28    30   ar
    14    30    31   ar
    15     1     2    1
    16     2     3    1
    17     3     4    1
    18     4     5    1
    19     5     8    1
    20     8     9   ar
    21     9    10   ar
    22    10    11    1
    23    10    12   ar
    24    12    13   ar
    25     5     6    1
    26     6     7    1
    27    31    25   ar
    28     7     2    1
    29    13     8   ar
    30    19    22    1
    31    11    14    1
    32    11    15    1
    33    13    16    1
@<TRIPOS>MOLECULE
*****
 31 33 0 0 0
SMALL
GASTEIGER

@<TRIPOS>ATOM
      1 N         142.9332  138.8840  162.9986 N.3     1  UNL1       -0.2659
      2 C         142.8689  139.4896  164.3694 C.3     1  UNL1        0.0614
      3 C         142.8809  138.6057  165.5812 C.3     1  UNL1        0.0375
      4 C         142.8165  139.2113  166.9520 C.3     1  UNL1        0.0950
      5 N         142.7402  140.7008  167.1110 N.pl3   1  UNL1       -0.2785
      6 C         142.7282  141.5849  165.8991 C.3     1  UNL1        0.0950
      7 C         142.7925  140.9792  164.5284 C.3     1  UNL1        0.0375
      8 C         142.6759  141.3065  168.4818 C.ar    1  UNL1        0.2163
      9 N         143.3250  142.5891  168.9104 N.ar    1  UNL1       -0.1804
     10 C         143.0014  142.8111  170.3582 C.ar    1  UNL1        0.2331
     11 N         143.4485  143.9742  171.1931 N.pl3   1  UNL1       -0.3262
     12 N         142.1523  141.6658  170.8243 N.ar    1  UNL1       -0.1354
     13 N         141.9511  140.7359  169.6646 N.ar    1  UNL1       -0.2450
     14 H         144.0071  144.6803  170.7948 H       1  UNL1        0.1452
     15 H         143.1832  144.0316  172.1395 H       1  UNL1        0.1452
     16 H         141.4341  139.8982  169.6776 H       1  UNL1        0.1919
     17 C         144.1743  139.0341  162.1698 C.3     1  UNL1        0.1584
     18 C         144.2230  142.2568  159.8542 C.3     1  UNL1        0.1107
     19 N         144.2394  141.3914  161.0792 N.am    1  UNL1       -0.3015
     20 C         144.1580  139.8996  160.9448 C.2     1  UNL1        0.2389
     21 O         144.0601  139.2733  159.5853 O.2     1  UNL1       -0.2736
     22 H         144.3036  141.8024  161.9715 H       1  UNL1        0.1495
     23 C         141.7563  138.1281  162.4566 C.3     1  UNL1        0.0772
     24 C         140.3841  138.7304  162.5206 C.3     1  UNL1        0.0437
     25 C         139.5960  138.6674  163.7954 C.ar    1  UNL1       -0.0207
     26 C         139.0507  139.9257  164.4031 C.ar    1  UNL1       -0.0034
     27 C         138.2627  139.8626  165.6778 C.ar    1  UNL1        0.0111
     28 C         138.0201  138.5413  166.3450 C.ar    1  UNL1        0.0577
     29 CL        137.2320  138.4782  167.6198 Cl      1  UNL1       -0.0822
     30 C         138.5654  137.2830  165.7373 C.ar    1  UNL1        0.0111
     31 C         139.3533  137.3460  164.4626 C.ar    1  UNL1       -0.0034
@<TRIPOS>BOND
     1    18    19    1
     2    19    20   am
     3    20    21    2
     4    20    17    1
     5    17     1    1
     6     1    23    1
     7    23    24    1
     8    24    25    1
     9    25    26   ar
    10    26    27   ar
    11    27    28   ar
    12    28    29    1
    13    28    30   ar
    14    30    31   ar
    15     1     2    1
    16     2     3    1
    17     3     4    1
    18     4     5    1
    19     5     8    1
    20     8     9   ar
    21     9    10   ar
    22    10    11    1
    23    10    12   ar
    24    12    13   ar
    25     5     6    1
    26     6     7    1
    27    31    25   ar
    28     7     2    1
    29    13     8   ar
    30    19    22    1
    31    11    14    1
    32    11    15    1
    33    13    16    1
@<TRIPOS>MOLECULE
*****
 31 33 0 0 0
SMALL
GASTEIGER

@<TRIPOS>ATOM
      1 N         138.7564  143.7471  163.4478 N.3     1  UNL1       -0.2659
      2 C         139.1849  142.9694  164.6568 C.3     1  UNL1        0.0614
      3 C         138.9152  141.4960  164.7350 C.3     1  UNL1        0.0375
      4 C         139.3437  140.7183  165.9440 C.3     1  UNL1        0.0950
      5 N         140.0418  141.4140  167.0747 N.pl3   1  UNL1       -0.2785
      6 C         140.3115  142.8875  166.9964 C.3     1  UNL1        0.0950
      7 C         139.8831  143.6652  165.7875 C.3     1  UNL1        0.0375
      8 C         140.4703  140.6363  168.2836 C.ar    1  UNL1        0.2163
      9 N         141.8109  139.9957  168.4904 N.ar    1  UNL1       -0.1804
     10 C         141.8025  139.3261  169.8326 C.ar    1  UNL1        0.2331
     11 N         142.9401  138.5636  170.4446 N.pl3   1  UNL1       -0.3262
     12 N         140.4569  139.5529  170.4554 N.ar    1  UNL1       -0.1354
     13 N         139.6335  140.3626  169.4981 N.ar    1  UNL1       -0.2450
     14 H         143.7890  138.4690  169.9551 H       1  UNL1        0.1452
     15 H         142.8378  138.1579  171.3357 H       1  UNL1        0.1452
     16 H         138.7067  140.6619  169.6416 H       1  UNL1        0.1919
     17 C         137.7370  143.1729  162.5091 C.3     1  UNL1        0.1584
     18 C         138.5132  140.3396  159.8409 C.3     1  UNL1        0.1107
     19 N         138.0721  141.0112  161.1075 N.am    1  UNL1       -0.3015
     20 C         138.1781  142.5013  161.2425 C.2     1  UNL1        0.2389
     21 O         138.7253  143.3199  160.1109 O.2     1  UNL1       -0.2736
     22 H         137.7130  140.4739  161.8502 H       1  UNL1        0.1495
     23 C         139.3473  145.0991  163.1776 C.3     1  UNL1        0.0772
     24 C         140.6159  145.2186  162.3861 C.3     1  UNL1        0.0437
     25 C         141.8362  144.4534  162.8051 C.ar    1  UNL1       -0.0207
     26 C         142.7840  145.0433  163.8069 C.ar    1  UNL1       -0.0034
     27 C         144.0042  144.2781  164.2259 C.ar    1  UNL1        0.0111
     28 C         144.2766  142.9231  163.6430 C.ar    1  UNL1        0.0577
     29 CL        145.4969  142.1579  164.0620 Cl      1  UNL1       -0.0822
     30 C         143.3288  142.3332  162.6412 C.ar    1  UNL1        0.0111
     31 C         142.1086  143.0984  162.2223 C.ar    1  UNL1       -0.0034
@<TRIPOS>BOND
     1    18    19    1
     2    19    20   am
     3    20    21    2
     4    20    17    1
     5    17     1    1
     6     1    23    1
     7    23    24    1
     8    24    25    1
     9    25    26   ar
    10    26    27   ar
    11    27    28   ar
    12    28    29    1
    13    28    30   ar
    14    30    31   ar
    15     1     2    1
    16     2     3    1
    17     3     4    1
    18     4     5    1
    19     5     8    1
    20     8     9   ar
    21     9    10   ar
    22    10    11    1
    23    10    12   ar
    24    12    13   ar
    25     5     6    1
    26     6     7    1
    27    31    25   ar
    28     7     2    1
    29    13     8   ar
    30    19    22    1
    31    11    14    1
    32    11    15    1
    33    13    16    1
@<TRIPOS>MOLECULE
*****
 31 33 0 0 0
SMALL
GASTEIGER

@<TRIPOS>ATOM
      1 N         138.8384  138.9542  163.3344 N.3     1  UNL1       -0.2659
      2 C         139.1994  139.3407  164.7381 C.3     1  UNL1        0.0614
      3 C         138.3277  138.9131  165.8814 C.3     1  UNL1        0.0375
      4 C         138.6886  139.2995  167.2851 C.3     1  UNL1        0.0950
      5 N         139.9213  140.1135  167.5455 N.pl3   1  UNL1       -0.2785
      6 C         140.7931  140.5411  166.4022 C.3     1  UNL1        0.0950
      7 C         140.4321  140.1547  164.9985 C.3     1  UNL1        0.0375
      8 C         140.2823  140.4999  168.9492 C.ar    1  UNL1        0.2163
      9 N         141.2714  141.5554  169.3465 N.ar    1  UNL1       -0.1804
     10 C         141.3179  141.6065  170.8449 C.ar    1  UNL1        0.2331
     11 N         142.1744  142.5209  171.6697 N.pl3   1  UNL1       -0.3262
     12 N         140.3577  140.5826  171.3737 N.ar    1  UNL1       -0.1354
     13 N         139.7176  139.8987  170.2021 N.ar    1  UNL1       -0.2450
     14 H         142.7764  143.1627  171.2282 H       1  UNL1        0.1452
     15 H         142.1345  142.4793  172.6525 H       1  UNL1        0.1452
     16 H         139.0450  139.1812  170.2475 H       1  UNL1        0.1919
     17 C         139.4704  137.7499  162.7020 C.3     1  UNL1        0.1584
     18 C         142.0616  138.4408  159.7765 C.3     1  UNL1        0.1107
     19 N         140.7654  138.3047  160.5191 N.am    1  UNL1       -0.3015
     20 C         140.7666  137.8859  161.9595 C.2     1  UNL1        0.2389
     21 O         142.0639  137.6032  162.6573 O.2     1  UNL1       -0.2736
     22 H         139.9139  138.4903  160.0611 H       1  UNL1        0.1495
     23 C         137.8454  139.7723  162.5631 C.3     1  UNL1        0.0772
     24 C         137.3076  141.0451  163.1468 C.3     1  UNL1        0.0437
     25 C         137.9975  142.3478  162.8690 C.ar    1  UNL1       -0.0207
     26 C         138.7056  142.5581  161.5635 C.ar    1  UNL1       -0.0034
     27 C         139.3954  143.8607  161.2858 C.ar    1  UNL1        0.0111
     28 C         139.3772  144.9531  162.3136 C.ar    1  UNL1        0.0577
     29 CL        140.0671  146.2559  162.0358 Cl      1  UNL1       -0.0822
     30 C         138.6691  144.7429  163.6191 C.ar    1  UNL1        0.0111
     31 C         137.9793  143.4402  163.8968 C.ar    1  UNL1       -0.0034
@<TRIPOS>BOND
     1    18    19    1
     2    19    20   am
     3    20    21    2
     4    20    17    1
     5    17     1    1
     6     1    23    1
     7    23    24    1
     8    24    25    1
     9    25    26   ar
    10    26    27   ar
    11    27    28   ar
    12    28    29    1
    13    28    30   ar
    14    30    31   ar
    15     1     2    1
    16     2     3    1
    17     3     4    1
    18     4     5    1
    19     5     8    1
    20     8     9   ar
    21     9    10   ar
    22    10    11    1
    23    10    12   ar
    24    12    13   ar
    25     5     6    1
    26     6     7    1
    27    31    25   ar
    28     7     2    1
    29    13     8   ar
    30    19    22    1
    31    11    14    1
    32    11    15    1
    33    13    16    1
