@<TRIPOS>MOLECULE
*****
 39 42 0 0 0
SMALL
GASTEIGER

@<TRIPOS>ATOM
      1 C         140.0034  138.3757  157.9996 C.3     1  UNL1        0.1183
      2 N         139.3490  139.1806  159.0831 N.am    1  UNL1       -0.2425
      3 C         139.0889  138.5613  160.4243 C.3     1  UNL1        0.1183
      4 C         138.4345  139.3662  161.5078 C.3     1  UNL1        0.1146
      5 C         138.6246  138.0646  162.2288 C.3     1  UNL1        0.0252
      6 C         138.0400  140.7902  161.2500 C.3     1  UNL1        0.2040
      7 O         138.3000  141.4094  159.9088 O.3     1  UNL1       -0.4351
      8 C         138.9545  140.6046  158.8253 C.2     1  UNL1        0.4049
      9 O         139.2145  141.2239  157.4841 O.2     1  UNL1       -0.2262
     10 N         137.8460  139.7189  162.8417 N.am    1  UNL1       -0.2867
     11 C         138.7348  139.8480  164.0431 C.2     1  UNL1        0.3059
     12 O         140.2122  139.6244  163.9106 O.2     1  UNL1       -0.2524
     13 N         138.1462  140.2008  165.3770 N.am    1  UNL1       -0.2485
     14 H         136.8764  139.8656  162.9286 H       1  UNL1        0.1510
     15 H         137.1766  140.3475  165.4639 H       1  UNL1        0.1583
     16 C         139.0351  140.3299  166.5783 C.ar    1  UNL1        0.1664
     17 N         140.2237  141.2365  166.7023 N.ar    1  UNL1       -0.2283
     18 C         140.8147  141.0421  168.0672 C.ar    1  UNL1        0.0667
     19 C         139.9913  140.0152  168.7868 C.ar    1  UNL1        0.0528
     20 S         138.8915  139.5751  167.8666 S.2     1  UNL1       -0.0511
     21 C         142.0177  141.7501  168.6161 C.3     1  UNL1        0.0360
     22 C         142.8824  140.5919  168.2150 C.3     1  UNL1        0.0059
     23 C         141.1531  142.9083  169.0173 C.3     1  UNL1        0.0059
     24 C         143.2208  142.4581  169.1651 C.3     1  UNL1        0.0059
     25 C         137.3855  141.5950  162.3335 C.3     1  UNL1        0.1181
     26 N         138.1481  142.6894  163.0195 N.3     1  UNL1       -0.2696
     27 C         137.5431  143.4046  164.1911 C.3     1  UNL1        0.0722
     28 C         138.3057  144.4990  164.8771 C.3     1  UNL1        0.0174
     29 C         139.6732  144.8784  164.3916 C.3     1  UNL1        0.0031
     30 C         140.2783  144.1633  163.2200 C.3     1  UNL1        0.0204
     31 C         139.5157  143.0688  162.5339 C.3     1  UNL1        0.0725
     32 C         141.6458  144.5427  162.7344 C.3     1  UNL1        0.0277
     33 C         142.8321  143.7012  163.1011 C.ar    1  UNL1       -0.0220
     34 C         143.0618  143.3113  164.5313 C.ar    1  UNL1       -0.0020
     35 C         144.2481  142.4697  164.8979 C.ar    1  UNL1        0.0293
     36 C         145.2047  142.0180  163.8345 C.ar    1  UNL1        0.1401
     37 F         146.3910  141.1765  164.2012 F       1  UNL1       -0.2042
     38 C         144.9751  142.4079  162.4044 C.ar    1  UNL1        0.0293
     39 C         143.7887  143.2495  162.0377 C.ar    1  UNL1       -0.0020
@<TRIPOS>BOND
     1     1     2    1
     2     2     3    1
     3     3     4    1
     4     4     5    1
     5     4    10    1
     6    10    11   am
     7    11    12    2
     8    11    13   am
     9    13    16    1
    10    16    17   ar
    11    17    18   ar
    12    18    21    1
    13    21    22    1
    14    21    23    1
    15    21    24    1
    16    18    19   ar
    17    19    20   ar
    18     4     6    1
    19     6    25    1
    20    25    26    1
    21    26    27    1
    22    27    28    1
    23    28    29    1
    24    29    30    1
    25    30    32    1
    26    32    33    1
    27    33    34   ar
    28    34    35   ar
    29    35    36   ar
    30    36    37    1
    31    36    38   ar
    32    38    39   ar
    33    30    31    1
    34     6     7    1
    35     7     8    1
    36     8     9    2
    37     8     2   am
    38    20    16   ar
    39    31    26    1
    40    39    33   ar
    41    10    14    1
    42    13    15    1
@<TRIPOS>MOLECULE
*****
 39 42 0 0 0
SMALL
GASTEIGER

@<TRIPOS>ATOM
      1 C         142.1384  144.1443  156.1252 C.3     1  UNL1        0.1183
      2 N         141.2234  143.7574  157.2491 N.am    1  UNL1       -0.2425
      3 C         141.1432  142.3266  157.6922 C.3     1  UNL1        0.1183
      4 C         140.2282  141.9397  158.8161 C.3     1  UNL1        0.1146
      5 C         140.8162  140.5998  158.4858 C.3     1  UNL1        0.0252
      6 C         139.3935  142.9835  159.4969 C.3     1  UNL1        0.2040
      7 O         139.4737  144.4143  159.0538 O.3     1  UNL1       -0.4351
      8 C         140.3886  144.8012  157.9299 C.2     1  UNL1        0.4049
      9 O         140.4688  146.2321  157.4868 O.2     1  UNL1       -0.2262
     10 N         139.5175  141.0874  159.8252 N.am    1  UNL1       -0.2867
     11 C         140.2745  140.5062  160.9825 C.2     1  UNL1        0.3059
     12 O         141.7423  140.7773  161.1306 O.2     1  UNL1       -0.2524
     13 N         139.5636  139.6538  161.9916 N.am    1  UNL1       -0.2485
     14 H         138.5541  140.9094  159.7280 H       1  UNL1        0.1510
     15 H         138.6002  139.4759  161.8944 H       1  UNL1        0.1583
     16 C         140.3207  139.0727  163.1488 C.ar    1  UNL1        0.1664
     17 N         140.7830  139.8200  164.3644 N.ar    1  UNL1       -0.2283
     18 C         141.4964  138.8515  165.2605 C.ar    1  UNL1        0.0667
     19 C         141.4750  137.5055  164.5987 C.ar    1  UNL1        0.0528
     20 S         140.7483  137.6423  163.2935 S.2     1  UNL1       -0.0511
     21 C         142.1215  139.1725  166.5858 C.3     1  UNL1        0.0360
     22 C         140.8931  139.9379  166.9798 C.3     1  UNL1        0.0059
     23 C         143.3499  138.4072  166.1917 C.3     1  UNL1        0.0059
     24 C         142.7466  139.4935  167.9110 C.3     1  UNL1        0.0059
     25 C         138.4785  142.5966  160.6208 C.3     1  UNL1        0.1181
     26 N         138.6389  143.2307  161.9706 N.3     1  UNL1       -0.2696
     27 C         137.4529  143.3733  162.8780 C.3     1  UNL1        0.0722
     28 C         137.6133  144.0074  164.2278 C.3     1  UNL1        0.0174
     29 C         138.9596  144.4988  164.6704 C.3     1  UNL1        0.0031
     30 C         140.1455  144.3563  163.7632 C.3     1  UNL1        0.0204
     31 C         139.9852  143.7222  162.4132 C.3     1  UNL1        0.0725
     32 C         141.4918  144.8477  164.2058 C.3     1  UNL1        0.0277
     33 C         142.6851  143.9426  164.1231 C.ar    1  UNL1       -0.0220
     34 C         143.6567  144.0842  162.9890 C.ar    1  UNL1       -0.0020
     35 C         144.8499  143.1790  162.9064 C.ar    1  UNL1        0.0293
     36 C         145.0716  142.1323  163.9577 C.ar    1  UNL1        0.1401
     37 F         146.2648  141.2272  163.8750 F       1  UNL1       -0.2042
     38 C         144.1000  141.9907  165.0917 C.ar    1  UNL1        0.0293
     39 C         142.9067  142.8959  165.1744 C.ar    1  UNL1       -0.0020
@<TRIPOS>BOND
     1     1     2    1
     2     2     3    1
     3     3     4    1
     4     4     5    1
     5     4    10    1
     6    10    11   am
     7    11    12    2
     8    11    13   am
     9    13    16    1
    10    16    17   ar
    11    17    18   ar
    12    18    21    1
    13    21    22    1
    14    21    23    1
    15    21    24    1
    16    18    19   ar
    17    19    20   ar
    18     4     6    1
    19     6    25    1
    20    25    26    1
    21    26    27    1
    22    27    28    1
    23    28    29    1
    24    29    30    1
    25    30    32    1
    26    32    33    1
    27    33    34   ar
    28    34    35   ar
    29    35    36   ar
    30    36    37    1
    31    36    38   ar
    32    38    39   ar
    33    30    31    1
    34     6     7    1
    35     7     8    1
    36     8     9    2
    37     8     2   am
    38    20    16   ar
    39    31    26    1
    40    39    33   ar
    41    10    14    1
    42    13    15    1
@<TRIPOS>MOLECULE
*****
 39 42 0 0 0
SMALL
GASTEIGER

@<TRIPOS>ATOM
      1 C         139.8433  143.0345  170.6592 C.3     1  UNL1        0.1183
      2 N         140.3551  142.0471  169.6528 N.am    1  UNL1       -0.2425
      3 C         141.5892  142.3569  168.8585 C.3     1  UNL1        0.1183
      4 C         142.1011  141.3694  167.8521 C.3     1  UNL1        0.1146
      5 C         143.1245  142.4548  167.6959 C.3     1  UNL1        0.0252
      6 C         141.3788  140.0721  167.6399 C.3     1  UNL1        0.2040
      7 O         140.1447  139.7622  168.4342 O.3     1  UNL1       -0.4351
      8 C         139.6328  140.7497  169.4406 C.2     1  UNL1        0.4049
      9 O         138.3986  140.4397  170.2349 O.2     1  UNL1       -0.2262
     10 N         142.9684  140.7590  166.7914 N.am    1  UNL1       -0.2867
     11 C         142.9730  141.3314  165.4050 C.2     1  UNL1        0.3059
     12 O         142.1102  142.5144  165.0791 O.2     1  UNL1       -0.2524
     13 N         143.8404  140.7208  164.3443 N.am    1  UNL1       -0.2485
     14 H         143.5346  139.9825  167.0053 H       1  UNL1        0.1510
     15 H         144.4067  139.9444  164.5582 H       1  UNL1        0.1583
     16 C         143.8450  141.2933  162.9579 C.ar    1  UNL1        0.1664
     17 N         142.7555  141.1422  161.9381 N.ar    1  UNL1       -0.2283
     18 C         143.1769  141.8729  160.6977 C.ar    1  UNL1        0.0667
     19 C         144.5270  142.4756  160.9510 C.ar    1  UNL1        0.0528
     20 S         144.9399  142.1174  162.3479 S.2     1  UNL1       -0.0511
     21 C         142.3870  141.9818  159.4272 C.3     1  UNL1        0.0360
     22 C         141.7134  140.6771  159.7341 C.3     1  UNL1        0.0059
     23 C         143.0606  143.2864  159.1202 C.3     1  UNL1        0.0059
     24 C         141.5971  142.0906  158.1566 C.3     1  UNL1        0.0059
     25 C         141.8906  139.0846  166.6335 C.3     1  UNL1        0.1181
     26 N         141.0742  138.7616  165.4174 N.3     1  UNL1       -0.2696
     27 C         141.3783  137.5313  164.6148 C.3     1  UNL1        0.0722
     28 C         140.5618  137.2083  163.3987 C.3     1  UNL1        0.0174
     29 C         139.4413  138.1156  162.9850 C.3     1  UNL1        0.0031
     30 C         139.1371  139.3459  163.7874 C.3     1  UNL1        0.0204
     31 C         139.9536  139.6689  165.0036 C.3     1  UNL1        0.0725
     32 C         138.0166  140.2531  163.3737 C.3     1  UNL1        0.0277
     33 C         138.2883  141.7018  163.0953 C.ar    1  UNL1       -0.0220
     34 C         137.6285  142.7619  163.9266 C.ar    1  UNL1       -0.0020
     35 C         137.9002  144.2105  163.6483 C.ar    1  UNL1        0.0293
     36 C         138.8317  144.5992  162.5387 C.ar    1  UNL1        0.1401
     37 F         139.1035  146.0478  162.2603 F       1  UNL1       -0.2042
     38 C         139.4915  143.5392  161.7074 C.ar    1  UNL1        0.0293
     39 C         139.2198  142.0904  161.9857 C.ar    1  UNL1       -0.0020
@<TRIPOS>BOND
     1     1     2    1
     2     2     3    1
     3     3     4    1
     4     4     5    1
     5     4    10    1
     6    10    11   am
     7    11    12    2
     8    11    13   am
     9    13    16    1
    10    16    17   ar
    11    17    18   ar
    12    18    21    1
    13    21    22    1
    14    21    23    1
    15    21    24    1
    16    18    19   ar
    17    19    20   ar
    18     4     6    1
    19     6    25    1
    20    25    26    1
    21    26    27    1
    22    27    28    1
    23    28    29    1
    24    29    30    1
    25    30    32    1
    26    32    33    1
    27    33    34   ar
    28    34    35   ar
    29    35    36   ar
    30    36    37    1
    31    36    38   ar
    32    38    39   ar
    33    30    31    1
    34     6     7    1
    35     7     8    1
    36     8     9    2
    37     8     2   am
    38    20    16   ar
    39    31    26    1
    40    39    33   ar
    41    10    14    1
    42    13    15    1
@<TRIPOS>MOLECULE
*****
 39 42 0 0 0
SMALL
GASTEIGER

@<TRIPOS>ATOM
      1 C         140.8376  145.0018  154.9735 C.3     1  UNL1        0.1183
      2 N         141.0082  144.9966  156.4637 N.am    1  UNL1       -0.2425
      3 C         142.0204  144.0903  157.0995 C.3     1  UNL1        0.1183
      4 C         142.1911  144.0851  158.5898 C.3     1  UNL1        0.1146
      5 C         143.2153  143.0585  158.2066 C.3     1  UNL1        0.0252
      6 C         141.3496  144.9861  159.4442 C.3     1  UNL1        0.2040
      7 O         140.3375  145.8923  158.8084 O.3     1  UNL1       -0.4351
      8 C         140.1668  145.8976  157.3181 C.2     1  UNL1        0.4049
      9 O         139.1546  146.8038  156.6823 O.2     1  UNL1       -0.2262
     10 N         142.7175  143.7233  159.9469 N.am    1  UNL1       -0.2867
     11 C         142.3488  142.4089  160.5685 C.2     1  UNL1        0.3059
     12 O         141.4536  141.4562  159.8329 O.2     1  UNL1       -0.2524
     13 N         142.8754  142.0472  161.9258 N.am    1  UNL1       -0.2485
     14 H         143.3051  144.3485  160.4297 H       1  UNL1        0.1510
     15 H         143.4629  142.6724  162.4085 H       1  UNL1        0.1583
     16 C         142.5066  140.7327  162.5473 C.ar    1  UNL1        0.1664
     17 N         141.1699  140.3756  163.1267 N.ar    1  UNL1       -0.2283
     18 C         141.2469  138.9668  163.6361 C.ar    1  UNL1        0.0667
     19 C         142.6313  138.4532  163.3715 C.ar    1  UNL1        0.0528
     20 S         143.4098  139.5447  162.6985 S.2     1  UNL1       -0.0511
     21 C         140.1349  138.2053  164.2945 C.3     1  UNL1        0.0360
     22 C         141.1064  137.1365  164.6992 C.3     1  UNL1        0.0059
     23 C         139.1633  139.2741  163.8898 C.3     1  UNL1        0.0059
     24 C         139.0229  137.4438  164.9529 C.3     1  UNL1        0.0059
     25 C         141.5203  144.9809  160.9345 C.3     1  UNL1        0.1181
     26 N         140.4745  144.3523  161.8069 N.3     1  UNL1       -0.2696
     27 C         139.1926  143.8586  161.2043 C.3     1  UNL1        0.0722
     28 C         138.1469  143.2300  162.0767 C.3     1  UNL1        0.0174
     29 C         138.3830  143.0950  163.5519 C.3     1  UNL1        0.0031
     30 C         139.6648  143.5886  164.1545 C.3     1  UNL1        0.0204
     31 C         140.7106  144.2173  163.2821 C.3     1  UNL1        0.0725
     32 C         139.9009  143.4536  165.6297 C.3     1  UNL1        0.0277
     33 C         140.6559  142.2725  166.1634 C.ar    1  UNL1       -0.0220
     34 C         142.1385  142.1748  165.9576 C.ar    1  UNL1       -0.0020
     35 C         142.8936  140.9937  166.4913 C.ar    1  UNL1        0.0293
     36 C         142.1660  139.9103  167.2308 C.ar    1  UNL1        0.1401
     37 F         142.9210  138.7292  167.7646 F       1  UNL1       -0.2042
     38 C         140.6834  140.0080  167.4367 C.ar    1  UNL1        0.0293
     39 C         139.9283  141.1891  166.9029 C.ar    1  UNL1       -0.0020
@<TRIPOS>BOND
     1     1     2    1
     2     2     3    1
     3     3     4    1
     4     4     5    1
     5     4    10    1
     6    10    11   am
     7    11    12    2
     8    11    13   am
     9    13    16    1
    10    16    17   ar
    11    17    18   ar
    12    18    21    1
    13    21    22    1
    14    21    23    1
    15    21    24    1
    16    18    19   ar
    17    19    20   ar
    18     4     6    1
    19     6    25    1
    20    25    26    1
    21    26    27    1
    22    27    28    1
    23    28    29    1
    24    29    30    1
    25    30    32    1
    26    32    33    1
    27    33    34   ar
    28    34    35   ar
    29    35    36   ar
    30    36    37    1
    31    36    38   ar
    32    38    39   ar
    33    30    31    1
    34     6     7    1
    35     7     8    1
    36     8     9    2
    37     8     2   am
    38    20    16   ar
    39    31    26    1
    40    39    33   ar
    41    10    14    1
    42    13    15    1
@<TRIPOS>MOLECULE
*****
 39 42 0 0 0
SMALL
GASTEIGER

@<TRIPOS>ATOM
      1 C         140.4999  143.0429  154.6306 C.3     1  UNL1        0.1183
      2 N         140.4999  143.4724  156.0678 N.am    1  UNL1       -0.2425
      3 C         141.7845  143.5023  156.8416 C.3     1  UNL1        0.1183
      4 C         141.7845  143.9318  158.2788 C.3     1  UNL1        0.1146
      5 C         143.2453  143.6471  158.0921 C.3     1  UNL1        0.0252
      6 C         140.4999  144.3314  158.9422 C.3     1  UNL1        0.2040
      7 O         139.2153  144.3014  158.1683 O.3     1  UNL1       -0.4351
      8 C         139.2153  143.8720  156.7311 C.2     1  UNL1        0.4049
      9 O         137.9306  143.8421  155.9573 O.2     1  UNL1       -0.2262
     10 N         142.2919  144.2624  159.6511 N.am    1  UNL1       -0.2867
     11 C         142.7957  143.1705  160.5477 C.2     1  UNL1        0.3059
     12 O         142.7922  141.7479  160.0720 O.2     1  UNL1       -0.2524
     13 N         143.3031  143.5012  161.9201 N.am    1  UNL1       -0.2485
     14 H         142.2942  145.1961  159.9634 H       1  UNL1        0.1510
     15 H         143.3054  144.4349  162.2323 H       1  UNL1        0.1583
     16 C         143.8069  142.4093  162.8166 C.ar    1  UNL1        0.1664
     17 N         142.9838  141.6151  163.7871 N.ar    1  UNL1       -0.2283
     18 C         143.8904  140.6348  164.4704 C.ar    1  UNL1        0.0667
     19 C         145.2740  140.8230  163.9222 C.ar    1  UNL1        0.0528
     20 S         145.2223  141.9198  162.9001 S.2     1  UNL1       -0.0511
     21 C         143.4847  139.6407  165.5179 C.3     1  UNL1        0.0360
     22 C         144.6768  138.7960  165.1779 C.3     1  UNL1        0.0059
     23 C         142.2927  140.4854  165.8579 C.3     1  UNL1        0.0059
     24 C         143.0791  138.6466  166.5654 C.3     1  UNL1        0.0059
     25 C         140.4998  144.7609  160.3794 C.3     1  UNL1        0.1181
     26 N         139.5260  144.1519  161.3441 N.3     1  UNL1       -0.2696
     27 C         138.8943  145.0000  162.4079 C.3     1  UNL1        0.0722
     28 C         137.9204  144.3910  163.3727 C.3     1  UNL1        0.0174
     29 C         137.5783  142.9339  163.2737 C.3     1  UNL1        0.0031
     30 C         138.2100  142.0858  162.2099 C.3     1  UNL1        0.0204
     31 C         139.1839  142.6948  161.2451 C.3     1  UNL1        0.0725
     32 C         137.8679  140.6287  162.1109 C.3     1  UNL1        0.0277
     33 C         138.7534  139.6048  162.7571 C.ar    1  UNL1       -0.0220
     34 C         138.4753  139.1503  164.1593 C.ar    1  UNL1       -0.0020
     35 C         139.3608  138.1265  164.8054 C.ar    1  UNL1        0.0293
     36 C         140.5244  137.5570  164.0494 C.ar    1  UNL1        0.1401
     37 F         141.4099  136.5331  164.6955 F       1  UNL1       -0.2042
     38 C         140.8026  138.0114  162.6472 C.ar    1  UNL1        0.0293
     39 C         139.9171  139.0353  162.0010 C.ar    1  UNL1       -0.0020
@<TRIPOS>BOND
     1     1     2    1
     2     2     3    1
     3     3     4    1
     4     4     5    1
     5     4    10    1
     6    10    11   am
     7    11    12    2
     8    11    13   am
     9    13    16    1
    10    16    17   ar
    11    17    18   ar
    12    18    21    1
    13    21    22    1
    14    21    23    1
    15    21    24    1
    16    18    19   ar
    17    19    20   ar
    18     4     6    1
    19     6    25    1
    20    25    26    1
    21    26    27    1
    22    27    28    1
    23    28    29    1
    24    29    30    1
    25    30    32    1
    26    32    33    1
    27    33    34   ar
    28    34    35   ar
    29    35    36   ar
    30    36    37    1
    31    36    38   ar
    32    38    39   ar
    33    30    31    1
    34     6     7    1
    35     7     8    1
    36     8     9    2
    37     8     2   am
    38    20    16   ar
    39    31    26    1
    40    39    33   ar
    41    10    14    1
    42    13    15    1
@<TRIPOS>MOLECULE
*****
 39 42 0 0 0
SMALL
GASTEIGER

@<TRIPOS>ATOM
      1 C         141.4132  140.0565  156.7388 C.3     1  UNL1        0.1183
      2 N         140.5992  140.7104  157.8157 N.am    1  UNL1       -0.2425
      3 C         139.9138  139.8705  158.8524 C.3     1  UNL1        0.1183
      4 C         139.0998  140.5244  159.9293 C.3     1  UNL1        0.1146
      5 C         138.9245  139.0838  160.3087 C.3     1  UNL1        0.0252
      6 C         138.9712  142.0183  159.9696 C.3     1  UNL1        0.2040
      7 O         139.6567  142.8583  158.9330 O.3     1  UNL1       -0.4351
      8 C         140.4707  142.2043  157.8561 C.2     1  UNL1        0.4049
      9 O         141.1561  143.0444  156.8194 O.2     1  UNL1       -0.2262
     10 N         138.2249  140.6780  161.1380 N.am    1  UNL1       -0.2867
     11 C         138.7942  140.4601  162.5085 C.2     1  UNL1        0.3059
     12 O         140.2384  140.0886  162.6704 O.2     1  UNL1       -0.2524
     13 N         137.9192  140.6137  163.7172 N.am    1  UNL1       -0.2485
     14 H         137.2770  140.9218  161.0318 H       1  UNL1        0.1510
     15 H         136.9713  140.8575  163.6110 H       1  UNL1        0.1583
     16 C         138.4885  140.3957  165.0877 C.ar    1  UNL1        0.1664
     17 N         139.4241  141.3187  165.8108 N.ar    1  UNL1       -0.2283
     18 C         139.7362  140.7101  167.1458 C.ar    1  UNL1        0.0667
     19 C         138.9933  139.4108  167.2479 C.ar    1  UNL1        0.0528
     20 S         138.2223  139.2166  165.9759 S.2     1  UNL1       -0.0511
     21 C         140.6334  141.2975  168.1946 C.3     1  UNL1        0.0360
     22 C         140.5519  142.6329  167.5164 C.3     1  UNL1        0.0059
     23 C         140.7149  139.9620  168.8727 C.3     1  UNL1        0.0059
     24 C         141.5306  141.8848  169.2434 C.3     1  UNL1        0.0059
     25 C         138.1573  142.6723  161.0465 C.3     1  UNL1        0.1181
     26 N         138.8412  143.3807  162.1780 N.3     1  UNL1       -0.2696
     27 C         138.0274  144.0246  163.2611 C.3     1  UNL1        0.0722
     28 C         138.7114  144.7330  164.3926 C.3     1  UNL1        0.0174
     29 C         140.2092  144.7975  164.4410 C.3     1  UNL1        0.0031
     30 C         141.0231  144.1535  163.3580 C.3     1  UNL1        0.0204
     31 C         140.3391  143.4451  162.2265 C.3     1  UNL1        0.0725
     32 C         142.5209  144.2180  163.4065 C.3     1  UNL1        0.0277
     33 C         143.3153  142.9825  163.7105 C.ar    1  UNL1       -0.0220
     34 C         144.7099  142.8374  163.1774 C.ar    1  UNL1       -0.0020
     35 C         145.5043  141.6020  163.4814 C.ar    1  UNL1        0.0293
     36 C         144.9042  140.5116  164.3186 C.ar    1  UNL1        0.1401
     37 F         145.6986  139.2761  164.6227 F       1  UNL1       -0.2042
     38 C         143.5097  140.6566  164.8518 C.ar    1  UNL1        0.0293
     39 C         142.7152  141.8921  164.5477 C.ar    1  UNL1       -0.0020
@<TRIPOS>BOND
     1     1     2    1
     2     2     3    1
     3     3     4    1
     4     4     5    1
     5     4    10    1
     6    10    11   am
     7    11    12    2
     8    11    13   am
     9    13    16    1
    10    16    17   ar
    11    17    18   ar
    12    18    21    1
    13    21    22    1
    14    21    23    1
    15    21    24    1
    16    18    19   ar
    17    19    20   ar
    18     4     6    1
    19     6    25    1
    20    25    26    1
    21    26    27    1
    22    27    28    1
    23    28    29    1
    24    29    30    1
    25    30    32    1
    26    32    33    1
    27    33    34   ar
    28    34    35   ar
    29    35    36   ar
    30    36    37    1
    31    36    38   ar
    32    38    39   ar
    33    30    31    1
    34     6     7    1
    35     7     8    1
    36     8     9    2
    37     8     2   am
    38    20    16   ar
    39    31    26    1
    40    39    33   ar
    41    10    14    1
    42    13    15    1
@<TRIPOS>MOLECULE
*****
 39 42 0 0 0
SMALL
GASTEIGER

@<TRIPOS>ATOM
      1 C         141.7689  145.8663  157.9650 C.3     1  UNL1        0.1183
      2 N         140.9057  144.9551  158.7863 N.am    1  UNL1       -0.2425
      3 C         140.5872  145.3051  160.2097 C.3     1  UNL1        0.1183
      4 C         139.7240  144.3939  161.0310 C.3     1  UNL1        0.1146
      5 C         140.0024  145.4684  162.0399 C.3     1  UNL1        0.0252
      6 C         139.1793  143.1326  160.4290 C.3     1  UNL1        0.2040
      7 O         139.4979  142.7825  159.0057 O.3     1  UNL1       -0.4351
      8 C         140.3611  143.6938  158.1843 C.2     1  UNL1        0.4049
      9 O         140.6797  143.3436  156.7609 O.2     1  UNL1       -0.2262
     10 N         138.9575  143.8559  162.2028 N.am    1  UNL1       -0.2867
     11 C         139.6900  143.3539  163.4116 C.2     1  UNL1        0.3059
     12 O         141.1892  143.3898  163.4487 O.2     1  UNL1       -0.2524
     13 N         138.9234  142.8159  164.5834 N.am    1  UNL1       -0.2485
     14 H         137.9736  143.8323  162.1784 H       1  UNL1        0.1510
     15 H         137.9395  142.7923  164.5590 H       1  UNL1        0.1583
     16 C         139.6560  142.3138  165.7921 C.ar    1  UNL1        0.1664
     17 N         140.3412  143.1613  166.8229 N.ar    1  UNL1       -0.2283
     18 C         140.9408  142.2475  167.8503 C.ar    1  UNL1        0.0667
     19 C         140.6262  140.8352  167.4545 C.ar    1  UNL1        0.0528
     20 S         139.8321  140.8762  166.1825 S.2     1  UNL1       -0.0511
     21 C         141.7185  142.6715  169.0609 C.3     1  UNL1        0.0360
     22 C         140.4819  143.2955  169.6367 C.3     1  UNL1        0.0059
     23 C         142.9550  142.0475  168.4851 C.3     1  UNL1        0.0059
     24 C         142.4961  143.0954  170.2715 C.3     1  UNL1        0.0059
     25 C         138.3161  142.2214  161.2503 C.3     1  UNL1        0.1181
     26 N         138.6941  140.7795  161.4175 N.3     1  UNL1       -0.2696
     27 C         137.6392  139.7585  161.7255 C.3     1  UNL1        0.0722
     28 C         138.0171  138.3166  161.8927 C.3     1  UNL1        0.0174
     29 C         139.4499  137.8956  161.7520 C.3     1  UNL1        0.0031
     30 C         140.5048  138.9165  161.4440 C.3     1  UNL1        0.0204
     31 C         140.1269  140.3585  161.2768 C.3     1  UNL1        0.0725
     32 C         141.9376  138.4955  161.3032 C.3     1  UNL1        0.0277
     33 C         143.0132  139.2378  162.0395 C.ar    1  UNL1       -0.0220
     34 C         143.3954  138.8214  163.4289 C.ar    1  UNL1       -0.0020
     35 C         144.4710  139.5637  164.1652 C.ar    1  UNL1        0.0293
     36 C         145.1644  140.7224  163.5120 C.ar    1  UNL1        0.1401
     37 F         146.2400  141.4647  164.2482 F       1  UNL1       -0.2042
     38 C         144.7822  141.1388  162.1226 C.ar    1  UNL1        0.0293
     39 C         143.7066  140.3965  161.3863 C.ar    1  UNL1       -0.0020
@<TRIPOS>BOND
     1     1     2    1
     2     2     3    1
     3     3     4    1
     4     4     5    1
     5     4    10    1
     6    10    11   am
     7    11    12    2
     8    11    13   am
     9    13    16    1
    10    16    17   ar
    11    17    18   ar
    12    18    21    1
    13    21    22    1
    14    21    23    1
    15    21    24    1
    16    18    19   ar
    17    19    20   ar
    18     4     6    1
    19     6    25    1
    20    25    26    1
    21    26    27    1
    22    27    28    1
    23    28    29    1
    24    29    30    1
    25    30    32    1
    26    32    33    1
    27    33    34   ar
    28    34    35   ar
    29    35    36   ar
    30    36    37    1
    31    36    38   ar
    32    38    39   ar
    33    30    31    1
    34     6     7    1
    35     7     8    1
    36     8     9    2
    37     8     2   am
    38    20    16   ar
    39    31    26    1
    40    39    33   ar
    41    10    14    1
    42    13    15    1
@<TRIPOS>MOLECULE
*****
 39 42 0 0 0
SMALL
GASTEIGER

@<TRIPOS>ATOM
      1 C         138.7282  139.9759  157.7385 C.3     1  UNL1        0.1183
      2 N         139.7191  139.6794  158.8248 N.am    1  UNL1       -0.2425
      3 C         139.2498  139.1244  160.1370 C.3     1  UNL1        0.1183
      4 C         140.2407  138.8280  161.2234 C.3     1  UNL1        0.1146
      5 C         138.9716  138.4169  161.9091 C.3     1  UNL1        0.0252
      6 C         141.7009  139.0865  160.9976 C.3     1  UNL1        0.2040
      7 O         142.1702  139.6414  159.6855 O.3     1  UNL1       -0.4351
      8 C         141.1792  139.9379  158.5991 C.2     1  UNL1        0.4049
      9 O         141.6486  140.4929  157.2869 O.2     1  UNL1       -0.2262
     10 N         140.7908  138.3887  162.5479 N.am    1  UNL1       -0.2867
     11 C         140.5362  139.2116  163.7759 C.2     1  UNL1        0.3059
     12 O         139.7315  140.4739  163.6794 O.2     1  UNL1       -0.2524
     13 N         141.0863  138.7723  165.1005 N.am    1  UNL1       -0.2485
     14 H         141.3189  137.5603  162.6113 H       1  UNL1        0.1510
     15 H         141.6145  137.9438  165.1639 H       1  UNL1        0.1583
     16 C         140.8317  139.5952  166.3285 C.ar    1  UNL1        0.1664
     17 N         141.8296  140.4729  167.0242 N.ar    1  UNL1       -0.2283
     18 C         141.1492  141.1051  168.2020 C.ar    1  UNL1        0.0667
     19 C         139.7307  140.6182  168.2343 C.ar    1  UNL1        0.0528
     20 S         139.5346  139.6850  167.0763 S.2     1  UNL1       -0.0511
     21 C         141.7770  142.0571  169.1765 C.3     1  UNL1        0.0360
     22 C         140.6073  141.8837  170.0994 C.3     1  UNL1        0.0059
     23 C         142.9466  142.2306  168.2536 C.3     1  UNL1        0.0059
     24 C         142.4047  143.0091  170.1510 C.3     1  UNL1        0.0059
     25 C         142.6918  138.7900  162.0840 C.3     1  UNL1        0.1181
     26 N         143.4204  139.9126  162.7613 N.3     1  UNL1       -0.2696
     27 C         144.7339  139.6540  163.4380 C.3     1  UNL1        0.0722
     28 C         145.4625  140.7766  164.1154 C.3     1  UNL1        0.0174
     29 C         144.8776  142.1579  164.1161 C.3     1  UNL1        0.0031
     30 C         143.5641  142.4166  163.4395 C.3     1  UNL1        0.0204
     31 C         142.8355  141.2939  162.7621 C.3     1  UNL1        0.0725
     32 C         142.9792  143.7978  163.4403 C.3     1  UNL1        0.0277
     33 C         141.5759  144.0178  163.9221 C.ar    1  UNL1       -0.0220
     34 C         141.1073  143.3664  165.1895 C.ar    1  UNL1       -0.0020
     35 C         139.7039  143.5864  165.6714 C.ar    1  UNL1        0.0293
     36 C         138.7691  144.4577  164.8859 C.ar    1  UNL1        0.1401
     37 F         137.3658  144.6776  165.3677 F       1  UNL1       -0.2042
     38 C         139.2377  145.1090  163.6186 C.ar    1  UNL1        0.0293
     39 C         140.6411  144.8891  163.1366 C.ar    1  UNL1       -0.0020
@<TRIPOS>BOND
     1     1     2    1
     2     2     3    1
     3     3     4    1
     4     4     5    1
     5     4    10    1
     6    10    11   am
     7    11    12    2
     8    11    13   am
     9    13    16    1
    10    16    17   ar
    11    17    18   ar
    12    18    21    1
    13    21    22    1
    14    21    23    1
    15    21    24    1
    16    18    19   ar
    17    19    20   ar
    18     4     6    1
    19     6    25    1
    20    25    26    1
    21    26    27    1
    22    27    28    1
    23    28    29    1
    24    29    30    1
    25    30    32    1
    26    32    33    1
    27    33    34   ar
    28    34    35   ar
    29    35    36   ar
    30    36    37    1
    31    36    38   ar
    32    38    39   ar
    33    30    31    1
    34     6     7    1
    35     7     8    1
    36     8     9    2
    37     8     2   am
    38    20    16   ar
    39    31    26    1
    40    39    33   ar
    41    10    14    1
    42    13    15    1
@<TRIPOS>MOLECULE
*****
 39 42 0 0 0
SMALL
GASTEIGER

@<TRIPOS>ATOM
      1 C         139.9794  142.7481  171.0001 C.3     1  UNL1        0.1183
      2 N         140.6129  142.0044  169.8619 N.am    1  UNL1       -0.2425
      3 C         139.7852  141.0855  169.0131 C.3     1  UNL1        0.1183
      4 C         140.4188  140.3418  167.8749 C.3     1  UNL1        0.1146
      5 C         139.0073  139.8488  167.7546 C.3     1  UNL1        0.0252
      6 C         141.8801  140.5171  167.5855 C.3     1  UNL1        0.2040
      7 O         142.7078  141.4360  168.4342 O.3     1  UNL1       -0.4351
      8 C         142.0742  142.1797  169.5724 C.2     1  UNL1        0.4049
      9 O         142.9021  143.0987  170.4212 O.2     1  UNL1       -0.2262
     10 N         140.5621  139.4269  166.6950 N.am    1  UNL1       -0.2867
     11 C         139.8749  139.7560  165.4029 C.2     1  UNL1        0.3059
     12 O         139.0444  141.0001  165.2907 O.2     1  UNL1       -0.2524
     13 N         140.0183  138.8410  164.2229 N.am    1  UNL1       -0.2485
     14 H         141.1072  138.6104  166.7685 H       1  UNL1        0.1510
     15 H         140.5634  138.0244  164.2965 H       1  UNL1        0.1583
     16 C         139.3311  139.1701  162.9308 C.ar    1  UNL1        0.1664
     17 N         139.5274  140.4171  162.1206 N.ar    1  UNL1       -0.2283
     18 C         138.6447  140.3279  160.9111 C.ar    1  UNL1        0.0667
     19 C         137.9027  139.0257  160.9739 C.ar    1  UNL1        0.0528
     20 S         138.3270  138.3102  162.2222 S.2     1  UNL1       -0.0511
     21 C         138.5248  141.3596  159.8289 C.3     1  UNL1        0.0360
     22 C         138.4601  142.4407  160.8668 C.3     1  UNL1        0.0059
     23 C         138.5895  140.2786  158.7911 C.3     1  UNL1        0.0059
     24 C         138.4050  142.3914  158.7467 C.3     1  UNL1        0.0059
     25 C         142.5137  139.7734  166.4473 C.3     1  UNL1        0.1181
     26 N         143.4204  140.4930  165.4934 N.3     1  UNL1       -0.2696
     27 C         144.5596  139.7629  164.8459 C.3     1  UNL1        0.0722
     28 C         145.4663  140.4825  163.8920 C.3     1  UNL1        0.0174
     29 C         145.2338  141.9324  163.5855 C.3     1  UNL1        0.0031
     30 C         144.0947  142.6625  164.2329 C.3     1  UNL1        0.0204
     31 C         143.1879  141.9429  165.1868 C.3     1  UNL1        0.0725
     32 C         143.8622  144.1124  163.9263 C.3     1  UNL1        0.0277
     33 C         142.7935  144.5110  162.9523 C.ar    1  UNL1       -0.0220
     34 C         142.8566  144.0323  161.5320 C.ar    1  UNL1       -0.0020
     35 C         141.7879  144.4309  160.5580 C.ar    1  UNL1        0.0293
     36 C         140.6560  145.3083  161.0040 C.ar    1  UNL1        0.1401
     37 F         139.5873  145.7070  160.0299 F       1  UNL1       -0.2042
     38 C         140.5928  145.7870  162.4241 C.ar    1  UNL1        0.0293
     39 C         141.6615  145.3884  163.3983 C.ar    1  UNL1       -0.0020
@<TRIPOS>BOND
     1     1     2    1
     2     2     3    1
     3     3     4    1
     4     4     5    1
     5     4    10    1
     6    10    11   am
     7    11    12    2
     8    11    13   am
     9    13    16    1
    10    16    17   ar
    11    17    18   ar
    12    18    21    1
    13    21    22    1
    14    21    23    1
    15    21    24    1
    16    18    19   ar
    17    19    20   ar
    18     4     6    1
    19     6    25    1
    20    25    26    1
    21    26    27    1
    22    27    28    1
    23    28    29    1
    24    29    30    1
    25    30    32    1
    26    32    33    1
    27    33    34   ar
    28    34    35   ar
    29    35    36   ar
    30    36    37    1
    31    36    38   ar
    32    38    39   ar
    33    30    31    1
    34     6     7    1
    35     7     8    1
    36     8     9    2
    37     8     2   am
    38    20    16   ar
    39    31    26    1
    40    39    33   ar
    41    10    14    1
    42    13    15    1
