@<TRIPOS>MOLECULE
*****
 26 28 0 0 0
SMALL
GASTEIGER

@<TRIPOS>ATOM
      1 C         139.0793  139.3781  166.3744 C.ar    1  UNL1        0.1713
      2 N         139.6276  139.8667  167.6823 N.ar    1  UNL1       -0.2211
      3 C         140.5930  140.9780  167.3941 C.ar    1  UNL1        0.0991
      4 C         140.6414  141.1763  165.9081 C.ar    1  UNL1        0.0794
      5 N         139.7059  140.1876  165.2778 N.ar    1  UNL1       -0.3045
      6 C         139.4430  140.0350  163.8089 C.3     1  UNL1        0.1324
      7 C         141.3731  141.7547  168.4131 C.ar    1  UNL1        0.0193
      8 C         140.7209  142.8819  169.1573 C.ar    1  UNL1        0.0038
      9 C         141.5010  143.6585  170.1763 C.ar    1  UNL1        0.0297
     10 C         142.9334  143.3078  170.4510 C.ar    1  UNL1        0.1401
     11 F         143.7135  144.0845  171.4700 F       1  UNL1       -0.2042
     12 C         143.5856  142.1806  169.7068 C.ar    1  UNL1        0.0297
     13 C         142.8055  141.4040  168.6879 C.ar    1  UNL1        0.0038
     14 C         141.4783  142.1860  165.1800 C.ar    1  UNL1        0.0217
     15 C         142.9612  141.9900  165.0676 C.ar    1  UNL1        0.0223
     16 C         143.7981  142.9997  164.3396 C.ar    1  UNL1        0.1004
     17 N         143.1522  144.2055  163.7240 N.ar    1  UNL1       -0.2290
     18 C         141.6693  144.4015  163.8364 C.ar    1  UNL1        0.1342
     19 C         140.8324  143.3917  164.5644 C.ar    1  UNL1        0.0360
     20 N         141.0233  145.6072  163.2208 N.am    1  UNL1       -0.2693
     21 C         140.1566  145.4556  162.0059 C.2     1  UNL1        0.2277
     22 C         139.5106  146.6613  161.3903 C.3     1  UNL1        0.0950
     23 O         139.9360  144.0983  161.4067 O.2     1  UNL1       -0.2747
     24 H         141.1681  146.4980  163.6141 H       1  UNL1        0.1563
     25 C         137.1852  137.8798  167.3320 C.3     1  UNL1        0.0772
     26 S         138.0800  138.2741  166.1945 S.3     1  UNL1       -0.0764
@<TRIPOS>BOND
     1    25    26    1
     2    26     1    1
     3     1     2   ar
     4     2     3   ar
     5     3     7    1
     6     7     8   ar
     7     8     9   ar
     8     9    10   ar
     9    10    11    1
    10    10    12   ar
    11    12    13   ar
    12     3     4   ar
    13     4    14    1
    14    14    15   ar
    15    15    16   ar
    16    16    17   ar
    17    17    18   ar
    18    18    20    1
    19    20    21   am
    20    21    22    1
    21    21    23    2
    22    18    19   ar
    23     4     5   ar
    24     5     6    1
    25     5     1   ar
    26    13     7   ar
    27    19    14   ar
    28    20    24    1
@<TRIPOS>MOLECULE
*****
 26 28 0 0 0
SMALL
GASTEIGER

@<TRIPOS>ATOM
      1 C         139.8786  140.6357  169.0497 C.ar    1  UNL1        0.1713
      2 N         139.4375  139.6497  168.0088 N.ar    1  UNL1       -0.2211
      3 C         139.5707  140.3033  166.6653 C.ar    1  UNL1        0.0991
      4 C         140.0940  141.6932  166.8758 C.ar    1  UNL1        0.0794
      5 N         140.2843  141.8987  168.3494 N.ar    1  UNL1       -0.3045
      6 C         140.7913  143.1477  169.0072 C.3     1  UNL1        0.1324
      7 C         139.2387  139.6769  165.3433 C.ar    1  UNL1        0.0193
      8 C         138.2915  140.3637  164.4047 C.ar    1  UNL1        0.0038
      9 C         137.9596  139.7373  163.0829 C.ar    1  UNL1        0.0297
     10 C         138.5749  138.4241  162.6996 C.ar    1  UNL1        0.1401
     11 F         138.2430  137.7977  161.3776 F       1  UNL1       -0.2042
     12 C         139.5222  137.7374  163.6381 C.ar    1  UNL1        0.0297
     13 C         139.8541  138.3638  164.9600 C.ar    1  UNL1        0.0038
     14 C         140.3773  142.7008  165.8013 C.ar    1  UNL1        0.0217
     15 C         139.3632  143.7579  165.4782 C.ar    1  UNL1        0.0223
     16 C         139.6465  144.7655  164.4038 C.ar    1  UNL1        0.1004
     17 N         140.9438  144.7161  163.6523 N.ar    1  UNL1       -0.2290
     18 C         141.9578  143.6590  163.9754 C.ar    1  UNL1        0.1342
     19 C         141.6745  142.6514  165.0499 C.ar    1  UNL1        0.0360
     20 N         143.2551  143.6096  163.2241 N.am    1  UNL1       -0.2693
     21 C         143.4049  142.6935  162.0458 C.2     1  UNL1        0.2277
     22 C         144.7023  142.6440  161.2944 C.3     1  UNL1        0.0950
     23 O         142.2574  141.8268  161.6189 O.2     1  UNL1       -0.2747
     24 H         144.0082  144.1784  163.5042 H       1  UNL1        0.1563
     25 C         141.1976  140.5360  171.2858 C.3     1  UNL1        0.0772
     26 S         139.9086  140.4001  170.5308 S.3     1  UNL1       -0.0764
@<TRIPOS>BOND
     1    25    26    1
     2    26     1    1
     3     1     2   ar
     4     2     3   ar
     5     3     7    1
     6     7     8   ar
     7     8     9   ar
     8     9    10   ar
     9    10    11    1
    10    10    12   ar
    11    12    13   ar
    12     3     4   ar
    13     4    14    1
    14    14    15   ar
    15    15    16   ar
    16    16    17   ar
    17    17    18   ar
    18    18    20    1
    19    20    21   am
    20    21    22    1
    21    21    23    2
    22    18    19   ar
    23     4     5   ar
    24     5     6    1
    25     5     1   ar
    26    13     7   ar
    27    19    14   ar
    28    20    24    1
@<TRIPOS>MOLECULE
*****
 26 28 0 0 0
SMALL
GASTEIGER

@<TRIPOS>ATOM
      1 C         139.8754  140.7453  168.3830 C.ar    1  UNL1        0.1713
      2 N         140.8438  141.8101  167.9609 N.ar    1  UNL1       -0.2211
      3 C         140.8223  141.8890  166.4631 C.ar    1  UNL1        0.0991
      4 C         139.8405  140.8729  165.9595 C.ar    1  UNL1        0.0794
      5 N         139.2553  140.1661  167.1460 N.ar    1  UNL1       -0.3045
      6 C         138.2299  139.0720  167.1031 C.3     1  UNL1        0.1324
      7 C         141.6391  142.8205  165.6174 C.ar    1  UNL1        0.0193
      8 C         143.1346  142.7049  165.6042 C.ar    1  UNL1        0.0038
      9 C         143.9514  143.6364  164.7586 C.ar    1  UNL1        0.0297
     10 C         143.2727  144.6835  163.9262 C.ar    1  UNL1        0.1401
     11 F         144.0896  145.6150  163.0805 F       1  UNL1       -0.2042
     12 C         141.7773  144.7992  163.9394 C.ar    1  UNL1        0.0297
     13 C         140.9605  143.8677  164.7850 C.ar    1  UNL1        0.0038
     14 C         139.5031  140.6099  164.5218 C.ar    1  UNL1        0.0217
     15 C         138.0994  140.8098  164.0322 C.ar    1  UNL1        0.0223
     16 C         137.7621  140.5468  162.5945 C.ar    1  UNL1        0.1004
     17 N         138.8283  140.0838  161.6464 N.ar    1  UNL1       -0.2290
     18 C         140.2319  139.8839  162.1361 C.ar    1  UNL1        0.1342
     19 C         140.5693  140.1470  163.5737 C.ar    1  UNL1        0.0360
     20 N         141.2982  139.4210  161.1880 N.am    1  UNL1       -0.2693
     21 C         141.8272  138.0204  161.2803 C.2     1  UNL1        0.2277
     22 C         142.8935  137.5575  160.3323 C.3     1  UNL1        0.0950
     23 O         141.2899  137.0828  162.3206 O.2     1  UNL1       -0.2747
     24 H         141.6509  140.0364  160.5053 H       1  UNL1        0.1563
     25 C         140.6173  140.5114  170.8619 C.3     1  UNL1        0.0772
     26 S         139.5790  140.3322  169.7942 S.3     1  UNL1       -0.0764
@<TRIPOS>BOND
     1    25    26    1
     2    26     1    1
     3     1     2   ar
     4     2     3   ar
     5     3     7    1
     6     7     8   ar
     7     8     9   ar
     8     9    10   ar
     9    10    11    1
    10    10    12   ar
    11    12    13   ar
    12     3     4   ar
    13     4    14    1
    14    14    15   ar
    15    15    16   ar
    16    16    17   ar
    17    17    18   ar
    18    18    20    1
    19    20    21   am
    20    21    22    1
    21    21    23    2
    22    18    19   ar
    23     4     5   ar
    24     5     6    1
    25     5     1   ar
    26    13     7   ar
    27    19    14   ar
    28    20    24    1
@<TRIPOS>MOLECULE
*****
 26 28 0 0 0
SMALL
GASTEIGER

@<TRIPOS>ATOM
      1 C         138.5693  141.8106  158.7051 C.ar    1  UNL1        0.1713
      2 N         138.3274  142.8977  159.7099 N.ar    1  UNL1       -0.2211
      3 C         138.8023  142.4081  161.0459 C.ar    1  UNL1        0.0991
      4 C         139.3378  141.0184  160.8667 C.ar    1  UNL1        0.0794
      5 N         139.1937  140.6491  159.4200 N.ar    1  UNL1       -0.3045
      6 C         139.6024  139.3470  158.7976 C.3     1  UNL1        0.1324
      7 C         138.7509  143.1738  162.3348 C.ar    1  UNL1        0.0193
      8 C         139.8272  144.1662  162.6611 C.ar    1  UNL1        0.0038
      9 C         139.7757  144.9318  163.9499 C.ar    1  UNL1        0.0297
     10 C         138.6478  144.7051  164.9124 C.ar    1  UNL1        0.1401
     11 F         138.5964  145.4708  166.2013 F       1  UNL1       -0.2042
     12 C         137.5715  143.7127  164.5861 C.ar    1  UNL1        0.0297
     13 C         137.6230  142.9470  163.2973 C.ar    1  UNL1        0.0038
     14 C         139.9158  140.1504  161.9449 C.ar    1  UNL1        0.0217
     15 C         141.4031  140.0016  162.0711 C.ar    1  UNL1        0.0223
     16 C         141.9811  139.1336  163.1493 C.ar    1  UNL1        0.1004
     17 N         141.0719  138.4143  164.1012 N.ar    1  UNL1       -0.2290
     18 C         139.5847  138.5632  163.9749 C.ar    1  UNL1        0.1342
     19 C         139.0067  139.4312  162.8968 C.ar    1  UNL1        0.0360
     20 N         138.6754  137.8440  164.9268 N.am    1  UNL1       -0.2693
     21 C         138.2420  138.5109  166.1985 C.2     1  UNL1        0.2277
     22 C         137.3327  137.7917  167.1504 C.3     1  UNL1        0.0950
     23 O         138.7178  139.8971  166.5183 O.2     1  UNL1       -0.2747
     24 H         138.3631  136.9342  164.7169 H       1  UNL1        0.1563
     25 C         136.9942  141.2265  156.7231 C.3     1  UNL1        0.0772
     26 S         138.2438  141.8738  157.2422 S.3     1  UNL1       -0.0764
@<TRIPOS>BOND
     1    25    26    1
     2    26     1    1
     3     1     2   ar
     4     2     3   ar
     5     3     7    1
     6     7     8   ar
     7     8     9   ar
     8     9    10   ar
     9    10    11    1
    10    10    12   ar
    11    12    13   ar
    12     3     4   ar
    13     4    14    1
    14    14    15   ar
    15    15    16   ar
    16    16    17   ar
    17    17    18   ar
    18    18    20    1
    19    20    21   am
    20    21    22    1
    21    21    23    2
    22    18    19   ar
    23     4     5   ar
    24     5     6    1
    25     5     1   ar
    26    13     7   ar
    27    19    14   ar
    28    20    24    1
@<TRIPOS>MOLECULE
*****
 26 28 0 0 0
SMALL
GASTEIGER

@<TRIPOS>ATOM
      1 C         138.4732  141.7638  158.6602 C.ar    1  UNL1        0.1713
      2 N         138.3020  142.8691  159.6596 N.ar    1  UNL1       -0.2211
      3 C         138.6504  142.3272  161.0143 C.ar    1  UNL1        0.0991
      4 C         139.0370  140.8870  160.8520 C.ar    1  UNL1        0.0794
      5 N         138.9274  140.5388  159.3971 N.ar    1  UNL1       -0.3045
      6 C         139.2207  139.2005  158.7863 C.3     1  UNL1        0.1324
      7 C         138.6180  143.0915  162.3046 C.ar    1  UNL1        0.0193
      8 C         137.5938  142.7576  163.3485 C.ar    1  UNL1        0.0038
      9 C         137.5614  143.5219  164.6387 C.ar    1  UNL1        0.0297
     10 C         138.5531  144.6199  164.8852 C.ar    1  UNL1        0.1401
     11 F         138.5207  145.3841  166.1756 F       1  UNL1       -0.2042
     12 C         139.5773  144.9537  163.8414 C.ar    1  UNL1        0.0297
     13 C         139.6097  144.1895  162.5511 C.ar    1  UNL1        0.0038
     14 C         139.4589  139.9581  161.9515 C.ar    1  UNL1        0.0217
     15 C         138.5833  138.8016  162.3337 C.ar    1  UNL1        0.0223
     16 C         139.0052  137.8727  163.4332 C.ar    1  UNL1        0.1004
     17 N         140.3028  138.1001  164.1507 N.ar    1  UNL1       -0.2290
     18 C         141.1784  139.2566  163.7685 C.ar    1  UNL1        0.1342
     19 C         140.7564  140.1855  162.6690 C.ar    1  UNL1        0.0360
     20 N         142.4759  139.4841  164.4859 N.am    1  UNL1       -0.2693
     21 C         143.7731  139.1343  163.8188 C.2     1  UNL1        0.2277
     22 C         145.0706  139.3618  164.5362 C.3     1  UNL1        0.0950
     23 O         143.7726  138.5571  162.4343 O.2     1  UNL1       -0.2747
     24 H         142.4761  139.8629  165.3946 H       1  UNL1        0.1563
     25 C         136.9136  141.4424  156.6072 C.3     1  UNL1        0.0772
     26 S         138.2325  141.8656  157.1831 S.3     1  UNL1       -0.0764
@<TRIPOS>BOND
     1    25    26    1
     2    26     1    1
     3     1     2   ar
     4     2     3   ar
     5     3     7    1
     6     7     8   ar
     7     8     9   ar
     8     9    10   ar
     9    10    11    1
    10    10    12   ar
    11    12    13   ar
    12     3     4   ar
    13     4    14    1
    14    14    15   ar
    15    15    16   ar
    16    16    17   ar
    17    17    18   ar
    18    18    20    1
    19    20    21   am
    20    21    22    1
    21    21    23    2
    22    18    19   ar
    23     4     5   ar
    24     5     6    1
    25     5     1   ar
    26    13     7   ar
    27    19    14   ar
    28    20    24    1
@<TRIPOS>MOLECULE
*****
 26 28 0 0 0
SMALL
GASTEIGER

@<TRIPOS>ATOM
      1 C         142.0984  139.5229  168.4943 C.ar    1  UNL1        0.1713
      2 N         142.9956  139.1577  167.3491 N.ar    1  UNL1       -0.2211
      3 C         142.3156  139.5709  166.0775 C.ar    1  UNL1        0.0991
      4 C         140.9982  140.1915  166.4368 C.ar    1  UNL1        0.0794
      5 N         140.8639  140.1618  167.9305 N.ar    1  UNL1       -0.3045
      6 C         139.6995  140.6801  168.7215 C.3     1  UNL1        0.1324
      7 C         142.8580  139.3945  164.6901 C.ar    1  UNL1        0.0193
      8 C         143.9395  140.3036  164.1864 C.ar    1  UNL1        0.0038
      9 C         144.4818  140.1272  162.7990 C.ar    1  UNL1        0.0297
     10 C         143.9425  139.0417  161.9154 C.ar    1  UNL1        0.1401
     11 F         144.4849  138.8653  160.5280 F       1  UNL1       -0.2042
     12 C         142.8610  138.1326  162.4191 C.ar    1  UNL1        0.0297
     13 C         142.3187  138.3090  163.8064 C.ar    1  UNL1        0.0038
     14 C         139.9917  140.7446  165.4720 C.ar    1  UNL1        0.0217
     15 C         138.9264  139.8529  164.9061 C.ar    1  UNL1        0.0223
     16 C         137.9199  140.4061  163.9413 C.ar    1  UNL1        0.1004
     17 N         137.9786  141.8509  163.5422 N.ar    1  UNL1       -0.2290
     18 C         139.0439  142.7425  164.1080 C.ar    1  UNL1        0.1342
     19 C         140.0503  142.1893  165.0729 C.ar    1  UNL1        0.0360
     20 N         139.1026  144.1872  163.7090 N.am    1  UNL1       -0.2693
     21 C         139.8242  144.5909  162.4575 C.2     1  UNL1        0.2277
     22 C         139.8830  146.0357  162.0585 C.3     1  UNL1        0.0950
     23 O         140.4871  143.5497  161.6050 O.2     1  UNL1       -0.2747
     24 H         138.6676  144.8705  164.2686 H       1  UNL1        0.1563
     25 C         142.7127  140.4485  170.8429 C.3     1  UNL1        0.0772
     26 S         142.3852  139.2900  169.9481 S.3     1  UNL1       -0.0764
@<TRIPOS>BOND
     1    25    26    1
     2    26     1    1
     3     1     2   ar
     4     2     3   ar
     5     3     7    1
     6     7     8   ar
     7     8     9   ar
     8     9    10   ar
     9    10    11    1
    10    10    12   ar
    11    12    13   ar
    12     3     4   ar
    13     4    14    1
    14    14    15   ar
    15    15    16   ar
    16    16    17   ar
    17    17    18   ar
    18    18    20    1
    19    20    21   am
    20    21    22    1
    21    21    23    2
    22    18    19   ar
    23     4     5   ar
    24     5     6    1
    25     5     1   ar
    26    13     7   ar
    27    19    14   ar
    28    20    24    1
@<TRIPOS>MOLECULE
*****
 26 28 0 0 0
SMALL
GASTEIGER

@<TRIPOS>ATOM
      1 C         140.9711  140.5114  168.9003 C.ar    1  UNL1        0.1713
      2 N         139.9857  139.8918  167.9542 N.ar    1  UNL1       -0.2211
      3 C         140.2977  140.3839  166.5720 C.ar    1  UNL1        0.0991
      4 C         141.4759  141.3076  166.6638 C.ar    1  UNL1        0.0794
      5 N         141.8921  141.3864  168.1028 N.ar    1  UNL1       -0.3045
      6 C         143.0296  142.1979  168.6484 C.3     1  UNL1        0.1324
      7 C         139.5608  140.0167  165.3181 C.ar    1  UNL1        0.0193
      8 C         139.8447  138.7110  164.6364 C.ar    1  UNL1        0.0038
      9 C         139.1078  138.3439  163.3826 C.ar    1  UNL1        0.0297
     10 C         138.0871  139.2824  162.8104 C.ar    1  UNL1        0.1401
     11 F         137.3502  138.9151  161.5565 F       1  UNL1       -0.2042
     12 C         137.8032  140.5880  163.4921 C.ar    1  UNL1        0.0297
     13 C         138.5401  140.9551  164.7459 C.ar    1  UNL1        0.0038
     14 C         142.1242  142.0264  165.5179 C.ar    1  UNL1        0.0217
     15 C         143.4036  141.5053  164.9332 C.ar    1  UNL1        0.0223
     16 C         144.0519  142.2241  163.7873 C.ar    1  UNL1        0.1004
     17 N         143.4209  143.4638  163.2261 N.ar    1  UNL1       -0.2290
     18 C         142.1416  143.9848  163.8108 C.ar    1  UNL1        0.1342
     19 C         141.4933  143.2661  164.9567 C.ar    1  UNL1        0.0360
     20 N         141.5106  145.2246  163.2497 N.am    1  UNL1       -0.2693
     21 C         140.3458  145.1143  162.3110 C.2     1  UNL1        0.2277
     22 C         139.7147  146.3540  161.7499 C.3     1  UNL1        0.0950
     23 O         139.8120  143.7641  161.9336 O.2     1  UNL1       -0.2747
     24 H         141.8609  146.1106  163.4975 H       1  UNL1        0.1563
     25 C         140.8447  141.4530  171.3185 C.3     1  UNL1        0.0772
     26 S         141.0258  140.2941  170.3835 S.3     1  UNL1       -0.0764
@<TRIPOS>BOND
     1    25    26    1
     2    26     1    1
     3     1     2   ar
     4     2     3   ar
     5     3     7    1
     6     7     8   ar
     7     8     9   ar
     8     9    10   ar
     9    10    11    1
    10    10    12   ar
    11    12    13   ar
    12     3     4   ar
    13     4    14    1
    14    14    15   ar
    15    15    16   ar
    16    16    17   ar
    17    17    18   ar
    18    18    20    1
    19    20    21   am
    20    21    22    1
    21    21    23    2
    22    18    19   ar
    23     4     5   ar
    24     5     6    1
    25     5     1   ar
    26    13     7   ar
    27    19    14   ar
    28    20    24    1
@<TRIPOS>MOLECULE
*****
 26 28 0 0 0
SMALL
GASTEIGER

@<TRIPOS>ATOM
      1 C         140.9951  140.9079  167.7906 C.ar    1  UNL1        0.1713
      2 N         140.3459  142.0865  167.1279 N.ar    1  UNL1       -0.2211
      3 C         141.0316  142.3150  165.8135 C.ar    1  UNL1        0.0991
      4 C         142.1046  141.2776  165.6639 C.ar    1  UNL1        0.0794
      5 N         142.0821  140.4079  166.8858 N.ar    1  UNL1       -0.3045
      6 C         142.9876  139.2429  167.1556 C.3     1  UNL1        0.1324
      7 C         140.7021  143.3919  164.8226 C.ar    1  UNL1        0.0193
      8 C         141.7968  144.2367  164.2413 C.ar    1  UNL1        0.0038
      9 C         141.4672  145.3136  163.2505 C.ar    1  UNL1        0.0297
     10 C         140.0430  145.5456  162.8410 C.ar    1  UNL1        0.1401
     11 F         139.7134  146.6225  161.8501 F       1  UNL1       -0.2042
     12 C         138.9483  144.7008  163.4223 C.ar    1  UNL1        0.0297
     13 C         139.2778  143.6240  164.4131 C.ar    1  UNL1        0.0038
     14 C         143.0366  141.1349  164.4972 C.ar    1  UNL1        0.0217
     15 C         144.4654  141.5747  164.6206 C.ar    1  UNL1        0.0223
     16 C         145.3974  141.4320  163.4539 C.ar    1  UNL1        0.1004
     17 N         144.9006  140.8496  162.1639 N.ar    1  UNL1       -0.2290
     18 C         143.4718  140.4098  162.0406 C.ar    1  UNL1        0.1342
     19 C         142.5399  140.5525  163.2073 C.ar    1  UNL1        0.0360
     20 N         142.9750  139.8274  160.7507 N.am    1  UNL1       -0.2693
     21 C         143.2971  138.4059  160.3964 C.2     1  UNL1        0.2277
     22 C         142.8003  137.8234  159.1064 C.3     1  UNL1        0.0950
     23 O         144.1161  137.5668  161.3321 O.2     1  UNL1       -0.2747
     24 H         142.4375  140.3781  160.1367 H       1  UNL1        0.1563
     25 C         139.2228  140.4797  169.6414 C.3     1  UNL1        0.0772
     26 S         140.6228  140.3305  169.1240 S.3     1  UNL1       -0.0764
@<TRIPOS>BOND
     1    25    26    1
     2    26     1    1
     3     1     2   ar
     4     2     3   ar
     5     3     7    1
     6     7     8   ar
     7     8     9   ar
     8     9    10   ar
     9    10    11    1
    10    10    12   ar
    11    12    13   ar
    12     3     4   ar
    13     4    14    1
    14    14    15   ar
    15    15    16   ar
    16    16    17   ar
    17    17    18   ar
    18    18    20    1
    19    20    21   am
    20    21    22    1
    21    21    23    2
    22    18    19   ar
    23     4     5   ar
    24     5     6    1
    25     5     1   ar
    26    13     7   ar
    27    19    14   ar
    28    20    24    1
@<TRIPOS>MOLECULE
*****
 26 28 0 0 0
SMALL
GASTEIGER

@<TRIPOS>ATOM
      1 C         140.7834  140.5721  169.2317 C.ar    1  UNL1        0.1713
      2 N         139.7864  139.9938  168.2717 N.ar    1  UNL1       -0.2211
      3 C         140.3335  140.1516  166.8840 C.ar    1  UNL1        0.0991
      4 C         141.6687  140.8274  166.9863 C.ar    1  UNL1        0.0794
      5 N         141.9468  141.0873  168.4371 N.ar    1  UNL1       -0.3045
      6 C         143.1729  141.7467  168.9955 C.3     1  UNL1        0.1324
      7 C         139.6631  139.7109  165.6166 C.ar    1  UNL1        0.0193
      8 C         139.8441  138.3066  165.1214 C.ar    1  UNL1        0.0038
      9 C         139.1737  137.8659  163.8540 C.ar    1  UNL1        0.0297
     10 C         138.3222  138.8296  163.0818 C.ar    1  UNL1        0.1401
     11 F         137.6518  138.3889  161.8143 F       1  UNL1       -0.2042
     12 C         138.1412  140.2338  163.5769 C.ar    1  UNL1        0.0297
     13 C         138.8116  140.6745  164.8443 C.ar    1  UNL1        0.0038
     14 C         142.5679  141.1813  165.8390 C.ar    1  UNL1        0.0217
     15 C         142.9376  142.6136  165.5900 C.ar    1  UNL1        0.0223
     16 C         143.8368  142.9675  164.4428 C.ar    1  UNL1        0.1004
     17 N         144.3665  141.8891  163.5446 N.ar    1  UNL1       -0.2290
     18 C         143.9968  140.4569  163.7937 C.ar    1  UNL1        0.1342
     19 C         143.0975  140.1030  164.9409 C.ar    1  UNL1        0.0360
     20 N         144.5264  139.3785  162.8955 N.am    1  UNL1       -0.2693
     21 C         143.6005  138.6607  161.9588 C.2     1  UNL1        0.2277
     22 C         144.1301  137.5823  161.0607 C.3     1  UNL1        0.0950
     23 O         142.1449  139.0213  161.9203 O.2     1  UNL1       -0.2747
     24 H         145.4817  139.1419  162.9208 H       1  UNL1        0.1563
     25 C         140.5853  141.9508  171.4248 C.3     1  UNL1        0.0772
     26 S         140.6420  140.6258  170.7240 S.3     1  UNL1       -0.0764
@<TRIPOS>BOND
     1    25    26    1
     2    26     1    1
     3     1     2   ar
     4     2     3   ar
     5     3     7    1
     6     7     8   ar
     7     8     9   ar
     8     9    10   ar
     9    10    11    1
    10    10    12   ar
    11    12    13   ar
    12     3     4   ar
    13     4    14    1
    14    14    15   ar
    15    15    16   ar
    16    16    17   ar
    17    17    18   ar
    18    18    20    1
    19    20    21   am
    20    21    22    1
    21    21    23    2
    22    18    19   ar
    23     4     5   ar
    24     5     6    1
    25     5     1   ar
    26    13     7   ar
    27    19    14   ar
    28    20    24    1
