@<TRIPOS>MOLECULE
*****
 32 35 0 0 0
SMALL
GASTEIGER

@<TRIPOS>ATOM
      1 C         137.7169  142.6474  163.7839 C.3     1  UNL1        0.2355
      2 O         137.5618  142.2916  162.3350 O.3     1  UNL1       -0.3290
      3 C         137.7235  140.8680  161.8909 C.3     1  UNL1        0.1629
      4 C         138.0403  139.8002  162.8956 C.3     1  UNL1        0.1144
      5 C         138.1955  140.1560  164.3445 C.3     1  UNL1        0.1629
      6 O         138.0338  141.5797  164.7887 O.3     1  UNL1       -0.3290
      7 N         138.2020  138.3767  162.4515 N.3     1  UNL1       -0.2908
      8 H         138.4551  138.4033  161.4637 H       1  UNL1        0.1237
      9 C         139.2014  137.4879  163.1307 C.3     1  UNL1        0.0957
     10 C         140.6104  137.9610  163.3328 C.ar    1  UNL1       -0.0055
     11 C         141.3821  138.5327  162.1806 C.ar    1  UNL1       -0.0020
     12 C         142.7912  139.0058  162.3827 C.ar    1  UNL1        0.0120
     13 C         143.4285  138.9072  163.7370 C.ar    1  UNL1        0.0682
     14 CL        144.8375  139.3802  163.9392 Cl      1  UNL1       -0.0814
     15 C         142.6567  138.3354  164.8892 C.ar    1  UNL1        0.0679
     16 CL        143.2941  138.2368  166.2435 Cl      1  UNL1       -0.0814
     17 C         141.2477  137.8624  164.6871 C.ar    1  UNL1        0.0093
     18 C         137.5553  144.0709  164.2281 C.3     1  UNL1        0.0661
     19 C         138.7144  144.8029  164.8371 C.3     1  UNL1        0.0355
     20 C         141.3265  142.0223  167.2237 C.ar    1  UNL1        0.2250
     21 C         142.7239  141.7279  166.7652 C.ar    1  UNL1        0.0593
     22 C         143.2507  142.3602  165.5111 C.ar    1  UNL1        0.0254
     23 C         142.3801  143.2870  164.7156 C.ar    1  UNL1        0.0990
     24 N         142.9069  143.9194  163.4616 N.ar    1  UNL1       -0.2400
     25 C         142.0362  144.8462  162.6660 C.ar    1  UNL1        0.1281
     26 C         140.6387  145.1407  163.1246 C.ar    1  UNL1        0.1567
     27 F         139.7680  146.0675  162.3291 F       1  UNL1       -0.2028
     28 C         140.1119  144.5084  164.3786 C.ar    1  UNL1        0.0262
     29 C         140.9826  143.5815  165.1741 C.ar    1  UNL1        0.1002
     30 N         140.4558  142.9492  166.4282 N.ar    1  UNL1       -0.2104
     31 C         139.8572  140.2262  168.3921 C.3     1  UNL1        0.2542
     32 O         140.7997  141.3900  168.4777 O.3     1  UNL1       -0.4561
@<TRIPOS>BOND
     1    31    32    1
     2    32    20    1
     3    20    21   ar
     4    21    22   ar
     5    22    23   ar
     6    23    24   ar
     7    24    25   ar
     8    25    26   ar
     9    26    27    1
    10    26    28   ar
    11    28    19    1
    12    19    18    1
    13     1    18    1
    14     1     2    1
    15     2     3    1
    16     3     4    1
    17     4     7    1
    18     7     9    1
    19     9    10    1
    20    10    11   ar
    21    11    12   ar
    22    12    13   ar
    23    13    14    1
    24    13    15   ar
    25    15    16    1
    26    15    17   ar
    27     4     5    1
    28     5     6    1
    29    28    29   ar
    30    29    30   ar
    31    30    20   ar
    32    29    23   ar
    33     6     1    1
    34    17    10   ar
    35     7     8    1
@<TRIPOS>MOLECULE
*****
 32 35 0 0 0
SMALL
GASTEIGER

@<TRIPOS>ATOM
      1 C         142.6146  144.3431  163.4425 C.3     1  UNL1        0.2355
      2 O         142.4326  143.6591  162.1200 O.3     1  UNL1       -0.3290
      3 C         141.0535  143.4410  161.5720 C.3     1  UNL1        0.1629
      4 C         139.8563  143.9069  162.3464 C.3     1  UNL1        0.1144
      5 C         140.0383  144.5909  163.6689 C.3     1  UNL1        0.1629
      6 O         141.4175  144.8090  164.2170 O.3     1  UNL1       -0.3290
      7 N         138.4772  143.6888  161.7983 N.3     1  UNL1       -0.2908
      8 H         138.5874  143.2016  160.9090 H       1  UNL1        0.1237
      9 C         137.4677  142.9151  162.5936 C.3     1  UNL1        0.0957
     10 C         137.8480  141.6041  163.2154 C.ar    1  UNL1       -0.0055
     11 C         138.0602  141.5104  164.6974 C.ar    1  UNL1       -0.0020
     12 C         138.4404  140.1994  165.3192 C.ar    1  UNL1        0.0120
     13 C         138.6084  138.9820  164.4590 C.ar    1  UNL1        0.0682
     14 CL        138.9886  137.6710  165.0809 Cl      1  UNL1       -0.0814
     15 C         138.3962  139.0757  162.9771 C.ar    1  UNL1        0.0679
     16 CL        138.5642  137.8583  162.1170 Cl      1  UNL1       -0.0814
     17 C         138.0160  140.3867  162.3553 C.ar    1  UNL1        0.0093
     18 C         143.9937  144.5612  163.9906 C.3     1  UNL1        0.0661
     19 C         144.5087  143.6869  165.0954 C.3     1  UNL1        0.0355
     20 C         141.3214  141.8007  167.6515 C.ar    1  UNL1        0.2250
     21 C         141.0988  140.3182  167.6003 C.ar    1  UNL1        0.0593
     22 C         141.9387  139.4645  166.6972 C.ar    1  UNL1        0.0254
     23 C         143.0012  140.0931  165.8452 C.ar    1  UNL1        0.0990
     24 N         143.8411  139.2394  164.9421 N.ar    1  UNL1       -0.2400
     25 C         144.9035  139.8680  164.0901 C.ar    1  UNL1        0.1281
     26 C         145.1261  141.3506  164.1412 C.ar    1  UNL1        0.1567
     27 F         146.1885  141.9793  163.2892 F       1  UNL1       -0.2028
     28 C         144.2862  142.2044  165.0443 C.ar    1  UNL1        0.0262
     29 C         143.2237  141.5756  165.8964 C.ar    1  UNL1        0.1002
     30 N         142.3838  142.4294  166.7995 N.ar    1  UNL1       -0.2104
     31 C         140.9559  142.9716  169.9418 C.3     1  UNL1        0.2542
     32 O         140.4815  142.6545  168.5546 O.3     1  UNL1       -0.4561
@<TRIPOS>BOND
     1    31    32    1
     2    32    20    1
     3    20    21   ar
     4    21    22   ar
     5    22    23   ar
     6    23    24   ar
     7    24    25   ar
     8    25    26   ar
     9    26    27    1
    10    26    28   ar
    11    28    19    1
    12    19    18    1
    13     1    18    1
    14     1     2    1
    15     2     3    1
    16     3     4    1
    17     4     7    1
    18     7     9    1
    19     9    10    1
    20    10    11   ar
    21    11    12   ar
    22    12    13   ar
    23    13    14    1
    24    13    15   ar
    25    15    16    1
    26    15    17   ar
    27     4     5    1
    28     5     6    1
    29    28    29   ar
    30    29    30   ar
    31    30    20   ar
    32    29    23   ar
    33     6     1    1
    34    17    10   ar
    35     7     8    1
@<TRIPOS>MOLECULE
*****
 32 35 0 0 0
SMALL
GASTEIGER

@<TRIPOS>ATOM
      1 C         141.2019  144.5405  163.1159 C.3     1  UNL1        0.2355
      2 O         141.5590  143.9203  161.7976 O.3     1  UNL1       -0.3290
      3 C         142.9144  143.3095  161.5987 C.3     1  UNL1        0.1629
      4 C         143.9130  143.3189  162.7181 C.3     1  UNL1        0.1144
      5 C         143.5559  143.9391  164.0363 C.3     1  UNL1        0.1629
      6 O         142.2004  144.5499  164.2352 O.3     1  UNL1       -0.3290
      7 N         145.2684  142.7081  162.5191 N.3     1  UNL1       -0.2908
      8 H         145.9523  143.4126  162.7957 H       1  UNL1        0.1237
      9 C         145.6342  141.4437  163.2384 C.3     1  UNL1        0.0957
     10 C         144.5800  140.4196  163.5383 C.ar    1  UNL1       -0.0055
     11 C         144.0967  140.2307  164.9456 C.ar    1  UNL1       -0.0020
     12 C         143.0425  139.2065  165.2455 C.ar    1  UNL1        0.0120
     13 C         142.4716  138.3714  164.1380 C.ar    1  UNL1        0.0682
     14 CL        141.4174  137.3472  164.4378 Cl      1  UNL1       -0.0814
     15 C         142.9550  138.5603  162.7306 C.ar    1  UNL1        0.0679
     16 CL        142.3841  137.7251  161.6230 Cl      1  UNL1       -0.0814
     17 C         144.0091  139.5844  162.4307 C.ar    1  UNL1        0.0093
     18 C         139.8465  145.1513  163.3148 C.3     1  UNL1        0.0661
     19 C         138.8826  144.5376  164.2867 C.3     1  UNL1        0.0355
     20 C         140.5755  142.1781  167.7242 C.ar    1  UNL1        0.2250
     21 C         140.4018  140.6889  167.7693 C.ar    1  UNL1        0.0593
     22 C         139.6639  139.9862  166.6686 C.ar    1  UNL1        0.0254
     23 C         139.0996  140.7726  165.5228 C.ar    1  UNL1        0.0990
     24 N         138.3616  140.0699  164.4220 N.ar    1  UNL1       -0.2400
     25 C         137.7973  140.8564  163.2762 C.ar    1  UNL1        0.1281
     26 C         137.9710  142.3457  163.2311 C.ar    1  UNL1        0.1567
     27 F         137.4067  143.1322  162.0852 F       1  UNL1       -0.2028
     28 C         138.7090  143.0484  164.3318 C.ar    1  UNL1        0.0262
     29 C         139.2733  142.2618  165.4777 C.ar    1  UNL1        0.1002
     30 N         140.0112  142.9645  166.5784 N.ar    1  UNL1       -0.2104
     31 C         140.5711  143.7728  169.7752 C.3     1  UNL1        0.2542
     32 O         141.3135  142.8808  168.8250 O.3     1  UNL1       -0.4561
@<TRIPOS>BOND
     1    31    32    1
     2    32    20    1
     3    20    21   ar
     4    21    22   ar
     5    22    23   ar
     6    23    24   ar
     7    24    25   ar
     8    25    26   ar
     9    26    27    1
    10    26    28   ar
    11    28    19    1
    12    19    18    1
    13     1    18    1
    14     1     2    1
    15     2     3    1
    16     3     4    1
    17     4     7    1
    18     7     9    1
    19     9    10    1
    20    10    11   ar
    21    11    12   ar
    22    12    13   ar
    23    13    14    1
    24    13    15   ar
    25    15    16    1
    26    15    17   ar
    27     4     5    1
    28     5     6    1
    29    28    29   ar
    30    29    30   ar
    31    30    20   ar
    32    29    23   ar
    33     6     1    1
    34    17    10   ar
    35     7     8    1
@<TRIPOS>MOLECULE
*****
 32 35 0 0 0
SMALL
GASTEIGER

@<TRIPOS>ATOM
      1 C         138.3525  139.7929  162.3918 C.3     1  UNL1        0.2355
      2 O         137.4311  140.5499  163.3017 O.3     1  UNL1       -0.3290
      3 C         137.3689  142.0468  163.2298 C.3     1  UNL1        0.1629
      4 C         138.2281  142.7869  162.2479 C.3     1  UNL1        0.1144
      5 C         139.1495  142.0299  161.3379 C.3     1  UNL1        0.1629
      6 O         139.2117  140.5329  161.4099 O.3     1  UNL1       -0.3290
      7 N         138.1659  144.2839  162.1760 N.3     1  UNL1       -0.2908
      8 H         137.1852  144.5433  162.2821 H       1  UNL1        0.1237
      9 C         138.9420  145.1146  163.1545 C.3     1  UNL1        0.0957
     10 C         140.2538  144.6178  163.6857 C.ar    1  UNL1       -0.0055
     11 C         140.2829  143.6899  164.8639 C.ar    1  UNL1       -0.0020
     12 C         141.5948  143.1930  165.3950 C.ar    1  UNL1        0.0120
     13 C         142.8776  143.6241  164.7480 C.ar    1  UNL1        0.0682
     14 CL        144.1895  143.1272  165.2791 Cl      1  UNL1       -0.0814
     15 C         142.8485  144.5520  163.5698 C.ar    1  UNL1        0.0679
     16 CL        144.1313  144.9831  162.9227 Cl      1  UNL1       -0.0814
     17 C         141.5366  145.0489  163.0386 C.ar    1  UNL1        0.0093
     18 C         138.4146  138.2960  162.4637 C.3     1  UNL1        0.0661
     19 C         138.8580  137.6236  163.7292 C.3     1  UNL1        0.0355
     20 C         143.2323  138.4307  163.0486 C.ar    1  UNL1        0.2250
     21 C         144.0211  139.1973  164.0685 C.ar    1  UNL1        0.0593
     22 C         143.3518  139.6948  165.3153 C.ar    1  UNL1        0.0254
     23 C         141.8937  139.4258  165.5421 C.ar    1  UNL1        0.0990
     24 N         141.2243  139.9233  166.7889 N.ar    1  UNL1       -0.2400
     25 C         139.7662  139.6543  167.0158 C.ar    1  UNL1        0.1281
     26 C         138.9774  138.8877  165.9959 C.ar    1  UNL1        0.1567
     27 F         137.5193  138.6187  166.2228 F       1  UNL1       -0.2028
     28 C         139.6467  138.3902  164.7491 C.ar    1  UNL1        0.0262
     29 C         141.1049  138.6592  164.5222 C.ar    1  UNL1        0.1002
     30 N         141.7743  138.1617  163.2755 N.ar    1  UNL1       -0.2104
     31 C         143.8779  138.7659  160.5544 C.3     1  UNL1        0.2542
     32 O         143.9017  137.9332  161.8018 O.3     1  UNL1       -0.4561
@<TRIPOS>BOND
     1    31    32    1
     2    32    20    1
     3    20    21   ar
     4    21    22   ar
     5    22    23   ar
     6    23    24   ar
     7    24    25   ar
     8    25    26   ar
     9    26    27    1
    10    26    28   ar
    11    28    19    1
    12    19    18    1
    13     1    18    1
    14     1     2    1
    15     2     3    1
    16     3     4    1
    17     4     7    1
    18     7     9    1
    19     9    10    1
    20    10    11   ar
    21    11    12   ar
    22    12    13   ar
    23    13    14    1
    24    13    15   ar
    25    15    16    1
    26    15    17   ar
    27     4     5    1
    28     5     6    1
    29    28    29   ar
    30    29    30   ar
    31    30    20   ar
    32    29    23   ar
    33     6     1    1
    34    17    10   ar
    35     7     8    1
@<TRIPOS>MOLECULE
*****
 32 35 0 0 0
SMALL
GASTEIGER

@<TRIPOS>ATOM
      1 C         144.7315  140.7829  162.9676 C.3     1  UNL1        0.2355
      2 O         144.1591  141.1379  161.6273 O.3     1  UNL1       -0.3290
      3 C         143.2030  140.2026  160.9485 C.3     1  UNL1        0.1629
      4 C         142.8191  138.9121  161.6099 C.3     1  UNL1        0.1144
      5 C         143.3915  138.5571  162.9502 C.3     1  UNL1        0.1629
      6 O         144.3477  139.4925  163.6290 O.3     1  UNL1       -0.3290
      7 N         141.8630  137.9768  160.9310 N.3     1  UNL1       -0.2908
      8 H         142.0546  137.0438  161.2960 H       1  UNL1        0.1237
      9 C         140.3842  138.1953  161.0556 C.3     1  UNL1        0.0957
     10 C         139.7736  138.4435  162.4030 C.ar    1  UNL1       -0.0055
     11 C         139.8996  137.4122  163.4850 C.ar    1  UNL1       -0.0020
     12 C         139.2890  137.6604  164.8325 C.ar    1  UNL1        0.0120
     13 C         138.5524  138.9399  165.0979 C.ar    1  UNL1        0.0682
     14 CL        137.9418  139.1881  166.4454 Cl      1  UNL1       -0.0814
     15 C         138.4264  139.9711  164.0159 C.ar    1  UNL1        0.0679
     16 CL        137.6898  141.2506  164.2814 Cl      1  UNL1       -0.0814
     17 C         139.0370  139.7229  162.6685 C.ar    1  UNL1        0.0093
     18 C         145.6876  141.7182  163.6465 C.3     1  UNL1        0.0661
     19 C         145.1803  142.7119  164.6491 C.3     1  UNL1        0.0355
     20 C         141.9508  141.1134  167.3445 C.ar    1  UNL1        0.2250
     21 C         140.5516  141.6427  167.2340 C.ar    1  UNL1        0.0593
     22 C         140.2290  142.7049  166.2252 C.ar    1  UNL1        0.0254
     23 C         141.3055  143.2377  165.3267 C.ar    1  UNL1        0.0990
     24 N         140.9829  144.2998  164.3178 N.ar    1  UNL1       -0.2400
     25 C         142.0594  144.8326  163.4194 C.ar    1  UNL1        0.1281
     26 C         143.4586  144.3033  163.5298 C.ar    1  UNL1        0.1567
     27 F         144.5351  144.8361  162.6314 F       1  UNL1       -0.2028
     28 C         143.7812  143.2412  164.5387 C.ar    1  UNL1        0.0262
     29 C         142.7046  142.7084  165.4372 C.ar    1  UNL1        0.1002
     30 N         143.0273  141.6463  166.4460 N.ar    1  UNL1       -0.2104
     31 C         142.8013  140.4353  169.7038 C.3     1  UNL1        0.2542
     32 O         142.2734  140.0513  168.3533 O.3     1  UNL1       -0.4561
@<TRIPOS>BOND
     1    31    32    1
     2    32    20    1
     3    20    21   ar
     4    21    22   ar
     5    22    23   ar
     6    23    24   ar
     7    24    25   ar
     8    25    26   ar
     9    26    27    1
    10    26    28   ar
    11    28    19    1
    12    19    18    1
    13     1    18    1
    14     1     2    1
    15     2     3    1
    16     3     4    1
    17     4     7    1
    18     7     9    1
    19     9    10    1
    20    10    11   ar
    21    11    12   ar
    22    12    13   ar
    23    13    14    1
    24    13    15   ar
    25    15    16    1
    26    15    17   ar
    27     4     5    1
    28     5     6    1
    29    28    29   ar
    30    29    30   ar
    31    30    20   ar
    32    29    23   ar
    33     6     1    1
    34    17    10   ar
    35     7     8    1
@<TRIPOS>MOLECULE
*****
 32 35 0 0 0
SMALL
GASTEIGER

@<TRIPOS>ATOM
      1 C         142.9613  141.4234  165.8657 C.3     1  UNL1        0.2355
      2 O         143.0077  142.0617  164.5091 O.3     1  UNL1       -0.3290
      3 C         143.5048  141.2803  163.3292 C.3     1  UNL1        0.1629
      4 C         143.9556  139.8605  163.5059 C.3     1  UNL1        0.1144
      5 C         143.9093  139.2223  164.8625 C.3     1  UNL1        0.1629
      6 O         143.4121  140.0037  166.0425 O.3     1  UNL1       -0.3290
      7 N         144.4527  139.0791  162.3260 N.3     1  UNL1       -0.2908
      8 H         145.3604  138.6950  162.5885 H       1  UNL1        0.1237
      9 C         143.6406  137.9400  161.7847 C.3     1  UNL1        0.0957
     10 C         142.1430  138.0234  161.7776 C.ar    1  UNL1       -0.0055
     11 C         141.3539  137.4390  162.9116 C.ar    1  UNL1       -0.0020
     12 C         139.8562  137.5225  162.9044 C.ar    1  UNL1        0.0120
     13 C         139.1477  138.1903  161.7634 C.ar    1  UNL1        0.0682
     14 CL        137.6499  138.2738  161.7563 Cl      1  UNL1       -0.0814
     15 C         139.9368  138.7748  160.6295 C.ar    1  UNL1        0.0679
     16 CL        139.2282  139.4426  159.4885 Cl      1  UNL1       -0.0814
     17 C         141.4344  138.6913  160.6366 C.ar    1  UNL1        0.0093
     18 C         142.4642  142.2048  167.0456 C.3     1  UNL1        0.0661
     19 C         140.9930  142.4343  167.2273 C.3     1  UNL1        0.0355
     20 C         138.8245  143.6768  163.4851 C.ar    1  UNL1        0.2250
     21 C         137.8359  142.7464  162.8472 C.ar    1  UNL1        0.0593
     22 C         137.5701  141.4018  163.4567 C.ar    1  UNL1        0.0254
     23 C         138.2929  140.9876  164.7041 C.ar    1  UNL1        0.0990
     24 N         138.0272  139.6431  165.3135 N.ar    1  UNL1       -0.2400
     25 C         138.7500  139.2289  166.5609 C.ar    1  UNL1        0.1281
     26 C         139.7386  140.1593  167.1988 C.ar    1  UNL1        0.1567
     27 F         140.4614  139.7451  168.4462 F       1  UNL1       -0.2028
     28 C         140.0044  141.5039  166.5894 C.ar    1  UNL1        0.0262
     29 C         139.2815  141.9181  165.3420 C.ar    1  UNL1        0.1002
     30 N         139.5473  143.2626  164.7325 N.ar    1  UNL1       -0.2104
     31 C         140.5015  145.4912  162.6816 C.3     1  UNL1        0.2542
     32 O         139.0903  145.0214  162.8757 O.3     1  UNL1       -0.4561
@<TRIPOS>BOND
     1    31    32    1
     2    32    20    1
     3    20    21   ar
     4    21    22   ar
     5    22    23   ar
     6    23    24   ar
     7    24    25   ar
     8    25    26   ar
     9    26    27    1
    10    26    28   ar
    11    28    19    1
    12    19    18    1
    13     1    18    1
    14     1     2    1
    15     2     3    1
    16     3     4    1
    17     4     7    1
    18     7     9    1
    19     9    10    1
    20    10    11   ar
    21    11    12   ar
    22    12    13   ar
    23    13    14    1
    24    13    15   ar
    25    15    16    1
    26    15    17   ar
    27     4     5    1
    28     5     6    1
    29    28    29   ar
    30    29    30   ar
    31    30    20   ar
    32    29    23   ar
    33     6     1    1
    34    17    10   ar
    35     7     8    1
@<TRIPOS>MOLECULE
*****
 32 35 0 0 0
SMALL
GASTEIGER

@<TRIPOS>ATOM
      1 C         138.2263  140.2749  164.4871 C.3     1  UNL1        0.2355
      2 O         138.3947  141.5491  165.2605 O.3     1  UNL1       -0.3290
      3 C         138.2291  142.8716  164.5724 C.3     1  UNL1        0.1629
      4 C         137.8950  142.9200  163.1108 C.3     1  UNL1        0.1144
      5 C         137.7266  141.6458  162.3374 C.3     1  UNL1        0.1629
      6 O         137.8923  140.3232  163.0256 O.3     1  UNL1       -0.3290
      7 N         137.7294  144.2424  162.4227 N.3     1  UNL1       -0.2908
      8 H         136.9191  144.6950  162.8457 H       1  UNL1        0.1237
      9 C         138.8455  145.2443  162.4447 C.3     1  UNL1        0.0957
     10 C         140.2678  144.7856  162.3161 C.ar    1  UNL1       -0.0055
     11 C         140.6652  143.8820  161.1866 C.ar    1  UNL1       -0.0020
     12 C         142.0876  143.4232  161.0581 C.ar    1  UNL1        0.0120
     13 C         143.1125  143.8681  162.0589 C.ar    1  UNL1        0.0682
     14 CL        144.5349  143.4094  161.9303 Cl      1  UNL1       -0.0814
     15 C         142.7151  144.7717  163.1883 C.ar    1  UNL1        0.0679
     16 CL        143.7401  145.2166  164.1891 Cl      1  UNL1       -0.0814
     17 C         141.2928  145.2305  163.3169 C.ar    1  UNL1        0.0093
     18 C         138.3919  138.9525  165.1753 C.3     1  UNL1        0.0661
     19 C         139.7472  138.3151  165.2591 C.3     1  UNL1        0.0355
     20 C         142.1733  141.5739  167.1942 C.ar    1  UNL1        0.2250
     21 C         143.3338  142.1802  166.4623 C.ar    1  UNL1        0.0593
     22 C         143.6855  141.7002  165.0853 C.ar    1  UNL1        0.0254
     23 C         142.8769  140.6140  164.4403 C.ar    1  UNL1        0.0990
     24 N         143.2287  140.1341  163.0634 N.ar    1  UNL1       -0.2400
     25 C         142.4200  139.0478  162.4184 C.ar    1  UNL1        0.1281
     26 C         141.2595  138.4415  163.1503 C.ar    1  UNL1        0.1567
     27 F         140.4508  137.3552  162.5052 F       1  UNL1       -0.2028
     28 C         140.9077  138.9214  164.5272 C.ar    1  UNL1        0.0262
     29 C         141.7164  140.0077  165.1722 C.ar    1  UNL1        0.1002
     30 N         141.3646  140.4876  166.5491 N.ar    1  UNL1       -0.2104
     31 C         142.8965  142.5613  169.4859 C.3     1  UNL1        0.2542
     32 O         141.8215  142.0538  168.5711 O.3     1  UNL1       -0.4561
@<TRIPOS>BOND
     1    31    32    1
     2    32    20    1
     3    20    21   ar
     4    21    22   ar
     5    22    23   ar
     6    23    24   ar
     7    24    25   ar
     8    25    26   ar
     9    26    27    1
    10    26    28   ar
    11    28    19    1
    12    19    18    1
    13     1    18    1
    14     1     2    1
    15     2     3    1
    16     3     4    1
    17     4     7    1
    18     7     9    1
    19     9    10    1
    20    10    11   ar
    21    11    12   ar
    22    12    13   ar
    23    13    14    1
    24    13    15   ar
    25    15    16    1
    26    15    17   ar
    27     4     5    1
    28     5     6    1
    29    28    29   ar
    30    29    30   ar
    31    30    20   ar
    32    29    23   ar
    33     6     1    1
    34    17    10   ar
    35     7     8    1
@<TRIPOS>MOLECULE
*****
 32 35 0 0 0
SMALL
GASTEIGER

@<TRIPOS>ATOM
      1 C         141.6029  138.0354  164.4097 C.3     1  UNL1        0.2355
      2 O         142.3001  138.1171  163.0841 O.3     1  UNL1       -0.3290
      3 C         143.6184  138.8239  162.9723 C.3     1  UNL1        0.1629
      4 C         144.2396  139.4489  164.1862 C.3     1  UNL1        0.1144
      5 C         143.5424  139.3672  165.5118 C.3     1  UNL1        0.1629
      6 O         142.2241  138.6604  165.6235 O.3     1  UNL1       -0.3290
      7 N         145.5579  140.1557  164.0745 N.3     1  UNL1       -0.2908
      8 H         146.2313  139.4704  163.7319 H       1  UNL1        0.1237
      9 C         145.6881  141.3661  163.1981 C.3     1  UNL1        0.0957
     10 C         144.6495  142.4469  163.2530 C.ar    1  UNL1       -0.0055
     11 C         144.4083  143.1910  164.5330 C.ar    1  UNL1       -0.0020
     12 C         143.3697  144.2719  164.5878 C.ar    1  UNL1        0.0120
     13 C         142.5724  144.6087  163.3628 C.ar    1  UNL1        0.0682
     14 CL        141.5337  145.6897  163.4176 Cl      1  UNL1       -0.0814
     15 C         142.8136  143.8647  162.0829 C.ar    1  UNL1        0.0679
     16 CL        142.0162  144.2016  160.8578 Cl      1  UNL1       -0.0814
     17 C         143.8521  142.7838  162.0280 C.ar    1  UNL1        0.0093
     18 C         140.2846  137.3286  164.5214 C.3     1  UNL1        0.0661
     19 C         139.0402  138.1069  164.8312 C.3     1  UNL1        0.0355
     20 C         140.1866  142.0574  166.6558 C.ar    1  UNL1        0.2250
     21 C         139.8984  143.3339  165.9228 C.ar    1  UNL1        0.0593
     22 C         139.2281  143.2936  164.5815 C.ar    1  UNL1        0.0254
     23 C         138.8459  141.9768  163.9733 C.ar    1  UNL1        0.0990
     24 N         138.1756  141.9365  162.6320 N.ar    1  UNL1       -0.2400
     25 C         137.7935  140.6197  162.0238 C.ar    1  UNL1        0.1281
     26 C         138.0817  139.3431  162.7569 C.ar    1  UNL1        0.1567
     27 F         137.6996  138.0263  162.1487 F       1  UNL1       -0.2028
     28 C         138.7520  139.3834  164.0982 C.ar    1  UNL1        0.0262
     29 C         139.1342  140.7003  164.7064 C.ar    1  UNL1        0.1002
     30 N         139.8045  140.7406  166.0476 N.ar    1  UNL1       -0.2104
     31 C         140.4360  143.1151  169.0157 C.3     1  UNL1        0.2542
     32 O         140.8570  142.0977  167.9971 O.3     1  UNL1       -0.4561
@<TRIPOS>BOND
     1    31    32    1
     2    32    20    1
     3    20    21   ar
     4    21    22   ar
     5    22    23   ar
     6    23    24   ar
     7    24    25   ar
     8    25    26   ar
     9    26    27    1
    10    26    28   ar
    11    28    19    1
    12    19    18    1
    13     1    18    1
    14     1     2    1
    15     2     3    1
    16     3     4    1
    17     4     7    1
    18     7     9    1
    19     9    10    1
    20    10    11   ar
    21    11    12   ar
    22    12    13   ar
    23    13    14    1
    24    13    15   ar
    25    15    16    1
    26    15    17   ar
    27     4     5    1
    28     5     6    1
    29    28    29   ar
    30    29    30   ar
    31    30    20   ar
    32    29    23   ar
    33     6     1    1
    34    17    10   ar
    35     7     8    1
@<TRIPOS>MOLECULE
*****
 32 35 0 0 0
SMALL
GASTEIGER

@<TRIPOS>ATOM
      1 C         142.7971  143.6996  163.5011 C.3     1  UNL1        0.2355
      2 O         142.4143  142.9033  162.2889 O.3     1  UNL1       -0.3290
      3 C         141.0116  142.9680  161.7612 C.3     1  UNL1        0.1629
      4 C         139.9917  143.8290  162.4458 C.3     1  UNL1        0.1144
      5 C         140.3745  144.6253  163.6580 C.3     1  UNL1        0.1629
      6 O         141.7772  144.5606  164.1856 O.3     1  UNL1       -0.3290
      7 N         138.5891  143.8937  161.9182 N.3     1  UNL1       -0.2908
      8 H         138.6255  143.5855  160.9465 H       1  UNL1        0.1237
      9 C         137.5007  143.1037  162.5825 C.3     1  UNL1        0.0957
     10 C         137.8155  141.7842  163.2226 C.ar    1  UNL1       -0.0055
     11 C         138.0119  141.6987  164.7073 C.ar    1  UNL1       -0.0020
     12 C         138.3268  140.3792  165.3474 C.ar    1  UNL1        0.0120
     13 C         138.4451  139.1452  164.5029 C.ar    1  UNL1        0.0682
     14 CL        138.7600  137.8256  165.1430 Cl      1  UNL1       -0.0814
     15 C         138.2487  139.2307  163.0183 C.ar    1  UNL1        0.0679
     16 CL        138.3671  137.9966  162.1738 Cl      1  UNL1       -0.0814
     17 C         137.9339  140.5501  162.3781 C.ar    1  UNL1        0.0093
     18 C         144.1997  143.6349  164.0287 C.3     1  UNL1        0.0661
     19 C         144.7106  142.3675  164.6473 C.3     1  UNL1        0.0355
     20 C         143.4021  138.9216  162.0658 C.ar    1  UNL1        0.2250
     21 C         142.4367  137.9068  162.6025 C.ar    1  UNL1        0.0593
     22 C         141.9075  138.0405  163.9997 C.ar    1  UNL1        0.0254
     23 C         142.3437  139.1891  164.8602 C.ar    1  UNL1        0.0990
     24 N         141.8145  139.3228  166.2573 N.ar    1  UNL1       -0.2400
     25 C         142.2506  140.4714  167.1178 C.ar    1  UNL1        0.1281
     26 C         143.2160  141.4863  166.5811 C.ar    1  UNL1        0.1567
     27 F         143.6522  142.6349  167.4416 F       1  UNL1       -0.2028
     28 C         143.7453  141.3526  165.1840 C.ar    1  UNL1        0.0262
     29 C         143.3090  140.2039  164.3235 C.ar    1  UNL1        0.1002
     30 N         143.8382  140.0702  162.9263 N.ar    1  UNL1       -0.2104
     31 C         143.1035  138.1149  159.6143 C.3     1  UNL1        0.2542
     32 O         143.9313  138.7879  160.6687 O.3     1  UNL1       -0.4561
@<TRIPOS>BOND
     1    31    32    1
     2    32    20    1
     3    20    21   ar
     4    21    22   ar
     5    22    23   ar
     6    23    24   ar
     7    24    25   ar
     8    25    26   ar
     9    26    27    1
    10    26    28   ar
    11    28    19    1
    12    19    18    1
    13     1    18    1
    14     1     2    1
    15     2     3    1
    16     3     4    1
    17     4     7    1
    18     7     9    1
    19     9    10    1
    20    10    11   ar
    21    11    12   ar
    22    12    13   ar
    23    13    14    1
    24    13    15   ar
    25    15    16    1
    26    15    17   ar
    27     4     5    1
    28     5     6    1
    29    28    29   ar
    30    29    30   ar
    31    30    20   ar
    32    29    23   ar
    33     6     1    1
    34    17    10   ar
    35     7     8    1
