@<TRIPOS>MOLECULE
*****
 44 49 0 0 0
SMALL
GASTEIGER

@<TRIPOS>ATOM
      1 C         138.5092  140.2015  159.9520 C.ar    1  UNL1        0.1499
      2 N         138.3972  139.1989  161.0621 N.ar    1  UNL1       -0.2222
      3 C         138.5203  139.9332  162.3642 C.ar    1  UNL1        0.1476
      4 N         138.7085  141.3898  162.0590 N.ar    1  UNL1       -0.2919
      5 C         138.7016  141.5557  160.5681 C.ar    1  UNL1        0.0894
      6 C         138.4651  139.3190  163.7315 C.ar    1  UNL1        0.0345
      7 C         138.0885  140.1584  164.9162 C.ar    1  UNL1        0.0030
      8 C         138.0333  139.5441  166.2835 C.ar    1  UNL1        0.0001
      9 C         138.3547  138.0903  166.4661 C.ar    1  UNL1        0.0000
     10 C         138.7312  137.2509  165.2814 C.ar    1  UNL1        0.0001
     11 C         138.7864  137.8652  163.9141 C.ar    1  UNL1        0.0030
     12 C         138.8744  142.4877  163.0674 C.ar    1  UNL1        0.0651
     13 C         137.6982  143.3342  163.4548 C.ar    1  UNL1        0.0176
     14 C         137.8641  144.4321  164.4632 C.ar    1  UNL1        0.0015
     15 C         139.2062  144.6836  165.0843 C.ar    1  UNL1        0.0001
     16 C         140.3823  143.8371  164.6969 C.ar    1  UNL1        0.0015
     17 C         140.2164  142.7392  163.6885 C.ar    1  UNL1        0.0176
     18 N         139.4226  138.9519  157.8653 N.am    1  UNL1       -0.2995
     19 C         138.4408  139.9027  158.4837 C.2     1  UNL1        0.2648
     20 O         137.3907  140.5544  157.6338 O.2     1  UNL1       -0.2684
     21 H         140.1118  138.5242  158.4232 H       1  UNL1        0.1498
     22 C         139.3542  138.6531  156.3970 C.3     1  UNL1        0.0912
     23 C         140.5752  138.1695  155.6724 C.3     1  UNL1        0.0386
     24 C         141.9239  138.7257  156.0213 C.3     1  UNL1        0.0739
     25 N         143.0986  139.2389  160.3349 N.pl3   1  UNL1       -0.3049
     26 C         142.7441  140.4380  159.5063 C.3     1  UNL1        0.1081
     27 C         142.3525  140.2669  158.0685 C.3     1  UNL1        0.0938
     28 N         142.3155  138.8967  157.4592 N.3     1  UNL1       -0.2697
     29 C         142.6700  137.6976  158.2877 C.3     1  UNL1        0.0938
     30 C         143.0616  137.8687  159.7256 C.3     1  UNL1        0.1081
     31 C         141.6638  137.7003  162.4736 C.3     1  UNL1        0.0332
     32 C         142.7728  138.6407  162.8421 C.ar    1  UNL1        0.0020
     33 C         143.1644  138.8119  164.2799 C.ar    1  UNL1        0.0549
     34 CL        142.4470  138.0426  165.3493 Cl      1  UNL1       -0.0825
     35 C         144.2734  139.7523  164.6484 C.ar    1  UNL1        0.0112
     36 C         144.9908  140.5216  163.5790 C.ar    1  UNL1        0.0021
     37 C         144.5992  140.3504  162.1412 C.ar    1  UNL1        0.0143
     38 C         143.4902  139.4100  161.7728 C.ar    1  UNL1        0.0447
     39 C         138.8593  142.8484  159.8241 C.3     1  UNL1        0.1746
     40 N         140.2274  143.3357  159.4487 N.ar    1  UNL1       -0.2239
     41 C         141.3038  143.7626  160.4022 C.ar    1  UNL1        0.1976
     42 N         142.5009  144.1724  159.5966 N.ar    1  UNL1       -0.2007
     43 C         142.1643  143.9988  158.1452 C.ar    1  UNL1        0.2210
     44 N         140.7592  143.4817  158.0538 N.ar    1  UNL1       -0.1448
@<TRIPOS>BOND
     1    31    32    1
     2    32    33   ar
     3    33    34    1
     4    33    35   ar
     5    35    36   ar
     6    36    37   ar
     7    37    38   ar
     8    38    25    1
     9    25    26    1
    10    26    27    1
    11    27    28    1
    12    28    24    1
    13    24    23    1
    14    23    22    1
    15    22    18    1
    16    18    19   am
    17    19    20    2
    18    19     1    1
    19     1     2   ar
    20     2     3   ar
    21     3     6    1
    22     6     7   ar
    23     7     8   ar
    24     8     9   ar
    25     9    10   ar
    26    10    11   ar
    27     3     4   ar
    28     4    12    1
    29    12    13   ar
    30    13    14   ar
    31    14    15   ar
    32    15    16   ar
    33    16    17   ar
    34     4     5   ar
    35     5    39    1
    36    39    40    1
    37    40    41   ar
    38    41    42   ar
    39    42    43   ar
    40    43    44   ar
    41    28    29    1
    42    29    30    1
    43    38    32   ar
    44    30    25    1
    45     5     1   ar
    46    44    40   ar
    47    11     6   ar
    48    17    12   ar
    49    18    21    1
@<TRIPOS>MOLECULE
*****
 44 49 0 0 0
SMALL
GASTEIGER

@<TRIPOS>ATOM
      1 C         140.7106  139.0312  160.2357 C.ar    1  UNL1        0.1499
      2 N         139.5921  139.0002  161.2347 N.ar    1  UNL1       -0.2222
      3 C         140.1967  138.9254  162.6054 C.ar    1  UNL1        0.1476
      4 N         141.6889  138.9101  162.4536 N.ar    1  UNL1       -0.2919
      5 C         142.0066  138.9755  160.9891 C.ar    1  UNL1        0.0894
      6 C         139.4417  138.8747  163.9005 C.ar    1  UNL1        0.0345
      7 C         139.0823  137.5511  164.5079 C.ar    1  UNL1        0.0030
      8 C         138.3273  137.5006  165.8031 C.ar    1  UNL1        0.0001
      9 C         137.9318  138.7736  166.4909 C.ar    1  UNL1        0.0000
     10 C         138.2912  140.0971  165.8835 C.ar    1  UNL1        0.0001
     11 C         139.0462  140.1477  164.5883 C.ar    1  UNL1        0.0030
     12 C         142.6881  138.8415  163.5702 C.ar    1  UNL1        0.0651
     13 C         142.3508  138.1082  164.8345 C.ar    1  UNL1        0.0176
     14 C         143.3500  138.0395  165.9511 C.ar    1  UNL1        0.0015
     15 C         144.6865  138.7043  165.8035 C.ar    1  UNL1        0.0001
     16 C         145.0239  139.4376  164.5392 C.ar    1  UNL1        0.0015
     17 C         144.0247  139.5062  163.4226 C.ar    1  UNL1        0.0176
     18 N         140.8788  140.3793  158.0211 N.am    1  UNL1       -0.2995
     19 C         140.5597  139.1049  158.7452 C.2     1  UNL1        0.2648
     20 O         140.0897  137.9043  157.9786 O.2     1  UNL1       -0.2684
     21 H         141.1873  141.1673  158.5243 H       1  UNL1        0.1498
     22 C         140.7279  140.4530  156.5306 C.3     1  UNL1        0.0912
     23 C         140.2373  141.7164  155.8880 C.3     1  UNL1        0.0386
     24 C         139.1279  142.4999  156.5246 C.3     1  UNL1        0.0739
     25 N         139.1876  143.2930  160.9538 N.pl3   1  UNL1       -0.3049
     26 C         140.0510  144.1052  160.0347 C.3     1  UNL1        0.1081
     27 C         140.0311  143.8409  158.5584 C.3     1  UNL1        0.0938
     28 N         139.1478  142.7642  158.0010 N.3     1  UNL1       -0.2697
     29 C         138.2843  141.9520  158.9201 C.3     1  UNL1        0.0938
     30 C         138.3043  142.2164  160.3965 C.3     1  UNL1        0.1081
     31 C         141.5696  142.4873  162.5900 C.3     1  UNL1        0.0332
     32 C         140.3985  143.1545  163.2483 C.ar    1  UNL1        0.0020
     33 C         140.4183  143.4189  164.7246 C.ar    1  UNL1        0.0549
     34 CL        141.6093  143.0161  165.5428 Cl      1  UNL1       -0.0825
     35 C         139.2472  144.0861  165.3829 C.ar    1  UNL1        0.0112
     36 C         138.0562  144.4889  164.5649 C.ar    1  UNL1        0.0021
     37 C         138.0364  144.2246  163.0885 C.ar    1  UNL1        0.0143
     38 C         139.2075  143.5574  162.4302 C.ar    1  UNL1        0.0447
     39 C         143.3791  138.9837  160.3841 C.3     1  UNL1        0.1746
     40 N         143.8204  140.1435  159.5415 N.ar    1  UNL1       -0.2239
     41 C         144.0401  141.5481  160.0200 C.ar    1  UNL1        0.1976
     42 N         144.4750  142.3749  158.8466 N.ar    1  UNL1       -0.2007
     43 C         144.5242  141.4815  157.6428 C.ar    1  UNL1        0.2210
     44 N         144.1197  140.1024  158.0722 N.ar    1  UNL1       -0.1448
@<TRIPOS>BOND
     1    31    32    1
     2    32    33   ar
     3    33    34    1
     4    33    35   ar
     5    35    36   ar
     6    36    37   ar
     7    37    38   ar
     8    38    25    1
     9    25    26    1
    10    26    27    1
    11    27    28    1
    12    28    24    1
    13    24    23    1
    14    23    22    1
    15    22    18    1
    16    18    19   am
    17    19    20    2
    18    19     1    1
    19     1     2   ar
    20     2     3   ar
    21     3     6    1
    22     6     7   ar
    23     7     8   ar
    24     8     9   ar
    25     9    10   ar
    26    10    11   ar
    27     3     4   ar
    28     4    12    1
    29    12    13   ar
    30    13    14   ar
    31    14    15   ar
    32    15    16   ar
    33    16    17   ar
    34     4     5   ar
    35     5    39    1
    36    39    40    1
    37    40    41   ar
    38    41    42   ar
    39    42    43   ar
    40    43    44   ar
    41    28    29    1
    42    29    30    1
    43    38    32   ar
    44    30    25    1
    45     5     1   ar
    46    44    40   ar
    47    11     6   ar
    48    17    12   ar
    49    18    21    1
@<TRIPOS>MOLECULE
*****
 44 49 0 0 0
SMALL
GASTEIGER

@<TRIPOS>ATOM
      1 C         138.7297  140.6422  159.7556 C.ar    1  UNL1        0.1499
      2 N         138.6453  139.5604  160.7913 N.ar    1  UNL1       -0.2222
      3 C         138.6881  140.2087  162.1433 C.ar    1  UNL1        0.1476
      4 N         138.7988  141.6912  161.9432 N.ar    1  UNL1       -0.2919
      5 C         138.8245  141.9591  160.4675 C.ar    1  UNL1        0.0894
      6 C         138.6302  139.4992  163.4636 C.ar    1  UNL1        0.0345
      7 C         138.1098  140.2124  164.6762 C.ar    1  UNL1        0.0030
      8 C         138.0520  139.5028  165.9964 C.ar    1  UNL1        0.0001
      9 C         138.5146  138.0800  166.1041 C.ar    1  UNL1        0.0000
     10 C         139.0350  137.3667  164.8915 C.ar    1  UNL1        0.0001
     11 C         139.0928  138.0763  163.5712 C.ar    1  UNL1        0.0030
     12 C         138.8711  142.7243  163.0283 C.ar    1  UNL1        0.0651
     13 C         137.6181  143.3906  163.5141 C.ar    1  UNL1        0.0176
     14 C         137.6904  144.4237  164.5992 C.ar    1  UNL1        0.0015
     15 C         139.0157  144.7907  165.1983 C.ar    1  UNL1        0.0001
     16 C         140.2687  144.1245  164.7124 C.ar    1  UNL1        0.0015
     17 C         140.1964  143.0913  163.6274 C.ar    1  UNL1        0.0176
     18 N         140.0033  140.5159  157.4946 N.am    1  UNL1       -0.2995
     19 C         138.7207  140.4422  158.2690 C.2     1  UNL1        0.2648
     20 O         137.4293  140.1685  157.5569 O.2     1  UNL1       -0.2684
     21 H         140.8509  140.6955  157.9621 H       1  UNL1        0.1498
     22 C         139.9943  140.3159  156.0081 C.3     1  UNL1        0.0912
     23 C         141.1264  139.5916  155.3419 C.3     1  UNL1        0.0386
     24 C         141.9604  138.6215  156.1252 C.3     1  UNL1        0.0739
     25 N         143.2737  139.6466  160.3054 N.pl3   1  UNL1       -0.3049
     26 C         142.2179  138.6040  160.0854 C.3     1  UNL1        0.1081
     27 C         141.7802  138.2623  158.6920 C.3     1  UNL1        0.0938
     28 N         142.3981  138.9632  157.5185 N.3     1  UNL1       -0.2697
     29 C         143.4539  140.0058  157.7386 C.3     1  UNL1        0.0938
     30 C         143.8916  140.3475  159.1321 C.3     1  UNL1        0.1081
     31 C         142.9602  142.4481  161.3318 C.3     1  UNL1        0.0332
     32 C         143.5547  141.3890  162.2120 C.ar    1  UNL1        0.0020
     33 C         143.9924  141.7306  163.6054 C.ar    1  UNL1        0.0549
     34 CL        143.8356  143.1314  164.1186 Cl      1  UNL1       -0.0825
     35 C         144.5869  140.6715  164.4857 C.ar    1  UNL1        0.0112
     36 C         144.7436  139.2708  163.9726 C.ar    1  UNL1        0.0021
     37 C         144.3059  138.9292  162.5791 C.ar    1  UNL1        0.0143
     38 C         143.7114  139.9883  161.6989 C.ar    1  UNL1        0.0447
     39 C         138.9270  143.3072  159.8179 C.3     1  UNL1        0.1746
     40 N         140.2484  143.7910  159.2986 N.ar    1  UNL1       -0.2239
     41 C         140.9320  145.0698  159.6826 C.ar    1  UNL1        0.1976
     42 N         142.2244  145.1501  158.9254 N.ar    1  UNL1       -0.2007
     43 C         142.3395  143.9209  158.0734 C.ar    1  UNL1        0.2210
     44 N         141.1184  143.0810  158.3041 N.ar    1  UNL1       -0.1448
@<TRIPOS>BOND
     1    31    32    1
     2    32    33   ar
     3    33    34    1
     4    33    35   ar
     5    35    36   ar
     6    36    37   ar
     7    37    38   ar
     8    38    25    1
     9    25    26    1
    10    26    27    1
    11    27    28    1
    12    28    24    1
    13    24    23    1
    14    23    22    1
    15    22    18    1
    16    18    19   am
    17    19    20    2
    18    19     1    1
    19     1     2   ar
    20     2     3   ar
    21     3     6    1
    22     6     7   ar
    23     7     8   ar
    24     8     9   ar
    25     9    10   ar
    26    10    11   ar
    27     3     4   ar
    28     4    12    1
    29    12    13   ar
    30    13    14   ar
    31    14    15   ar
    32    15    16   ar
    33    16    17   ar
    34     4     5   ar
    35     5    39    1
    36    39    40    1
    37    40    41   ar
    38    41    42   ar
    39    42    43   ar
    40    43    44   ar
    41    28    29    1
    42    29    30    1
    43    38    32   ar
    44    30    25    1
    45     5     1   ar
    46    44    40   ar
    47    11     6   ar
    48    17    12   ar
    49    18    21    1
@<TRIPOS>MOLECULE
*****
 44 49 0 0 0
SMALL
GASTEIGER

@<TRIPOS>ATOM
      1 C         142.9086  141.7715  162.8950 C.ar    1  UNL1        0.1499
      2 N         143.4331  141.9255  164.2919 N.ar    1  UNL1       -0.2222
      3 C         142.5412  141.1443  165.2107 C.ar    1  UNL1        0.1476
      4 N         141.4655  140.5074  164.3818 N.ar    1  UNL1       -0.2919
      5 C         141.6924  140.8950  162.9506 C.ar    1  UNL1        0.0894
      6 C         142.6976  141.0215  166.6974 C.ar    1  UNL1        0.0345
      7 C         143.0472  142.2281  167.5170 C.ar    1  UNL1        0.0030
      8 C         143.2036  142.1052  169.0038 C.ar    1  UNL1        0.0001
      9 C         143.0103  140.7757  169.6709 C.ar    1  UNL1        0.0000
     10 C         142.6607  139.5691  168.8513 C.ar    1  UNL1        0.0001
     11 C         142.5043  139.6920  167.3646 C.ar    1  UNL1        0.0030
     12 C         140.3573  139.6359  164.8940 C.ar    1  UNL1        0.0651
     13 C         139.2527  140.2323  165.7151 C.ar    1  UNL1        0.0176
     14 C         138.1445  139.3608  166.2273 C.ar    1  UNL1        0.0015
     15 C         138.1409  137.8929  165.9185 C.ar    1  UNL1        0.0001
     16 C         139.2455  137.2965  165.0974 C.ar    1  UNL1        0.0015
     17 C         140.3537  138.1680  164.5852 C.ar    1  UNL1        0.0176
     18 N         143.7585  141.5366  160.4511 N.am    1  UNL1       -0.2995
     19 C         143.4968  142.3859  161.6596 C.2     1  UNL1        0.2648
     20 O         143.8233  143.8497  161.6325 O.2     1  UNL1       -0.2684
     21 H         143.5441  140.5759  160.4689 H       1  UNL1        0.1498
     22 C         144.3467  142.1511  159.2156 C.3     1  UNL1        0.0912
     23 C         144.4347  141.3518  157.9494 C.3     1  UNL1        0.0386
     24 C         143.2067  140.6983  157.3881 C.3     1  UNL1        0.0739
     25 N         143.0763  136.2311  156.8616 N.pl3   1  UNL1       -0.3049
     26 C         142.5252  136.8557  158.1090 C.3     1  UNL1        0.1081
     27 C         142.5686  138.3447  158.2846 C.3     1  UNL1        0.0938
     28 N         143.1633  139.2093  157.2126 N.3     1  UNL1       -0.2697
     29 C         143.7144  138.5847  155.9651 C.3     1  UNL1        0.0938
     30 C         143.6709  137.0956  155.7896 C.3     1  UNL1        0.1081
     31 C         141.0258  134.9928  155.0555 C.3     1  UNL1        0.0332
     32 C         142.0076  134.1229  155.7831 C.ar    1  UNL1        0.0020
     33 C         141.9641  132.6338  155.6076 C.ar    1  UNL1        0.0549
     34 CL        140.9388  132.0146  154.7045 Cl      1  UNL1       -0.0825
     35 C         142.9459  131.7639  156.3352 C.ar    1  UNL1        0.0112
     36 C         143.9712  132.3831  157.2382 C.ar    1  UNL1        0.0021
     37 C         144.0146  133.8721  157.4136 C.ar    1  UNL1        0.0143
     38 C         143.0328  134.7420  156.6861 C.ar    1  UNL1        0.0447
     39 C         140.8512  140.4792  161.7805 C.3     1  UNL1        0.1746
     40 N         140.0663  141.5055  161.0185 N.ar    1  UNL1       -0.2239
     41 C         138.5959  141.7698  161.1531 C.ar    1  UNL1        0.1976
     42 N         138.2350  142.8754  160.2059 N.ar    1  UNL1       -0.2007
     43 C         139.4823  143.2945  159.4859 C.ar    1  UNL1        0.2210
     44 N         140.6141  142.4479  159.9881 N.ar    1  UNL1       -0.1448
@<TRIPOS>BOND
     1    31    32    1
     2    32    33   ar
     3    33    34    1
     4    33    35   ar
     5    35    36   ar
     6    36    37   ar
     7    37    38   ar
     8    38    25    1
     9    25    26    1
    10    26    27    1
    11    27    28    1
    12    28    24    1
    13    24    23    1
    14    23    22    1
    15    22    18    1
    16    18    19   am
    17    19    20    2
    18    19     1    1
    19     1     2   ar
    20     2     3   ar
    21     3     6    1
    22     6     7   ar
    23     7     8   ar
    24     8     9   ar
    25     9    10   ar
    26    10    11   ar
    27     3     4   ar
    28     4    12    1
    29    12    13   ar
    30    13    14   ar
    31    14    15   ar
    32    15    16   ar
    33    16    17   ar
    34     4     5   ar
    35     5    39    1
    36    39    40    1
    37    40    41   ar
    38    41    42   ar
    39    42    43   ar
    40    43    44   ar
    41    28    29    1
    42    29    30    1
    43    38    32   ar
    44    30    25    1
    45     5     1   ar
    46    44    40   ar
    47    11     6   ar
    48    17    12   ar
    49    18    21    1
@<TRIPOS>MOLECULE
*****
 44 49 0 0 0
SMALL
GASTEIGER

@<TRIPOS>ATOM
      1 C         138.5075  141.1887  159.4790 C.ar    1  UNL1        0.1499
      2 N         138.3923  142.2927  160.4879 N.ar    1  UNL1       -0.2222
      3 C         138.8639  141.7637  161.8099 C.ar    1  UNL1        0.1476
      4 N         139.2707  140.3328  161.6181 N.ar    1  UNL1       -0.2919
      5 C         139.0505  139.9773  160.1776 C.ar    1  UNL1        0.0894
      6 C         138.9191  142.5310  163.0976 C.ar    1  UNL1        0.0345
      7 C         140.0624  142.3231  164.0461 C.ar    1  UNL1        0.0030
      8 C         140.1175  143.0904  165.3338 C.ar    1  UNL1        0.0001
      9 C         139.0294  144.0656  165.6730 C.ar    1  UNL1        0.0000
     10 C         137.8861  144.2735  164.7245 C.ar    1  UNL1        0.0001
     11 C         137.8310  143.5062  163.4368 C.ar    1  UNL1        0.0030
     12 C         139.8042  139.4178  162.6804 C.ar    1  UNL1        0.0651
     13 C         141.2840  139.2213  162.8270 C.ar    1  UNL1        0.0176
     14 C         141.8174  138.3064  163.8892 C.ar    1  UNL1        0.0015
     15 C         140.8710  137.5879  164.8048 C.ar    1  UNL1        0.0001
     16 C         139.3912  137.7844  164.6581 C.ar    1  UNL1        0.0015
     17 C         138.8578  138.6994  163.5959 C.ar    1  UNL1        0.0176
     18 N         138.1980  142.6028  157.3216 N.am    1  UNL1       -0.2995
     19 C         138.1438  141.2799  158.0267 C.2     1  UNL1        0.2648
     20 O         137.7258  140.0483  157.2794 O.2     1  UNL1       -0.2684
     21 H         138.4723  143.4111  157.8121 H       1  UNL1        0.1498
     22 C         137.8342  142.6940  155.8693 C.3     1  UNL1        0.0912
     23 C         138.8718  143.0856  154.8594 C.3     1  UNL1        0.0386
     24 C         140.3105  142.7250  155.0837 C.3     1  UNL1        0.0739
     25 N         142.1784  143.3359  159.1318 N.pl3   1  UNL1       -0.3049
     26 C         141.7044  144.5174  158.3385 C.3     1  UNL1        0.1081
     27 C         141.0818  144.3138  156.9892 C.3     1  UNL1        0.0938
     28 N         140.9331  142.9286  156.4331 N.3     1  UNL1       -0.2697
     29 C         141.4070  141.7471  157.2264 C.3     1  UNL1        0.0938
     30 C         142.0297  141.9508  158.5758 C.3     1  UNL1        0.1081
     31 C         140.8173  145.0715  161.1654 C.3     1  UNL1        0.0332
     32 C         142.1205  144.4074  161.4980 C.ar    1  UNL1        0.0020
     33 C         142.7431  144.6110  162.8474 C.ar    1  UNL1        0.0549
     34 CL        142.0626  145.4788  163.8642 Cl      1  UNL1       -0.0825
     35 C         144.0463  143.9469  163.1800 C.ar    1  UNL1        0.0112
     36 C         144.7269  143.0791  162.1632 C.ar    1  UNL1        0.0021
     37 C         144.1042  142.8755  160.8139 C.ar    1  UNL1        0.0143
     38 C         142.8010  143.5396  160.4813 C.ar    1  UNL1        0.0447
     39 C         139.3250  138.6446  159.5464 C.3     1  UNL1        0.1746
     40 N         140.6148  138.4114  158.8170 N.ar    1  UNL1       -0.2239
     41 C         141.9819  138.3735  159.4332 C.ar    1  UNL1        0.1976
     42 N         142.9759  138.1139  158.3403 N.ar    1  UNL1       -0.2007
     43 C         142.2232  137.9914  157.0486 C.ar    1  UNL1        0.2210
     44 N         140.7640  138.1753  157.3433 N.ar    1  UNL1       -0.1448
@<TRIPOS>BOND
     1    31    32    1
     2    32    33   ar
     3    33    34    1
     4    33    35   ar
     5    35    36   ar
     6    36    37   ar
     7    37    38   ar
     8    38    25    1
     9    25    26    1
    10    26    27    1
    11    27    28    1
    12    28    24    1
    13    24    23    1
    14    23    22    1
    15    22    18    1
    16    18    19   am
    17    19    20    2
    18    19     1    1
    19     1     2   ar
    20     2     3   ar
    21     3     6    1
    22     6     7   ar
    23     7     8   ar
    24     8     9   ar
    25     9    10   ar
    26    10    11   ar
    27     3     4   ar
    28     4    12    1
    29    12    13   ar
    30    13    14   ar
    31    14    15   ar
    32    15    16   ar
    33    16    17   ar
    34     4     5   ar
    35     5    39    1
    36    39    40    1
    37    40    41   ar
    38    41    42   ar
    39    42    43   ar
    40    43    44   ar
    41    28    29    1
    42    29    30    1
    43    38    32   ar
    44    30    25    1
    45     5     1   ar
    46    44    40   ar
    47    11     6   ar
    48    17    12   ar
    49    18    21    1
@<TRIPOS>MOLECULE
*****
 44 49 0 0 0
SMALL
GASTEIGER

@<TRIPOS>ATOM
      1 C         142.7924  142.4727  160.3544 C.ar    1  UNL1        0.1499
      2 N         143.2351  141.5433  161.4454 N.ar    1  UNL1       -0.2222
      3 C         142.2763  141.6826  162.5905 C.ar    1  UNL1        0.1476
      4 N         141.2410  142.6981  162.2072 N.ar    1  UNL1       -0.2919
      5 C         141.5599  143.1865  160.8252 C.ar    1  UNL1        0.0894
      6 C         142.3413  140.9374  163.8905 C.ar    1  UNL1        0.0345
      7 C         143.6359  140.3292  164.3425 C.ar    1  UNL1        0.0030
      8 C         143.7008  139.5839  165.6426 C.ar    1  UNL1        0.0001
      9 C         142.4712  139.4468  166.4908 C.ar    1  UNL1        0.0000
     10 C         141.1767  140.0550  166.0388 C.ar    1  UNL1        0.0001
     11 C         141.1117  140.8002  164.7387 C.ar    1  UNL1        0.0030
     12 C         140.0889  143.1466  163.0567 C.ar    1  UNL1        0.0651
     13 C         138.7526  142.4788  162.9213 C.ar    1  UNL1        0.0176
     14 C         137.6006  142.9273  163.7707 C.ar    1  UNL1        0.0015
     15 C         137.7848  144.0435  164.7557 C.ar    1  UNL1        0.0001
     16 C         139.1211  144.7113  164.8912 C.ar    1  UNL1        0.0015
     17 C         140.2732  144.2628  164.0417 C.ar    1  UNL1        0.0176
     18 N         144.1755  141.5044  158.3796 N.am    1  UNL1       -0.2995
     19 C         143.4642  142.6562  159.0258 C.2     1  UNL1        0.2648
     20 O         143.4248  143.9914  158.3435 O.2     1  UNL1       -0.2684
     21 H         144.2014  140.6280  158.8275 H       1  UNL1        0.1498
     22 C         144.8473  141.6879  157.0511 C.3     1  UNL1        0.0912
     23 C         144.1144  141.3491  155.7870 C.3     1  UNL1        0.0386
     24 C         143.1897  140.1686  155.7494 C.3     1  UNL1        0.0739
     25 N         141.0299  138.8828  159.4819 N.pl3   1  UNL1       -0.3049
     26 C         142.2241  138.1117  159.0031 C.3     1  UNL1        0.1081
     27 C         142.9441  138.5403  157.7590 C.3     1  UNL1        0.0938
     28 N         142.4698  139.7400  156.9936 N.3     1  UNL1       -0.2697
     29 C         141.2756  140.5111  157.4724 C.3     1  UNL1        0.0938
     30 C         140.5556  140.0825  158.7166 C.3     1  UNL1        0.1081
     31 C         142.5811  137.8421  161.8295 C.3     1  UNL1        0.0332
     32 C         141.0855  137.9338  161.8999 C.ar    1  UNL1        0.0020
     33 C         140.3656  137.5051  163.1440 C.ar    1  UNL1        0.0549
     34 CL        141.1412  136.9848  164.3178 Cl      1  UNL1       -0.0825
     35 C         138.8700  137.5968  163.2144 C.ar    1  UNL1        0.0112
     36 C         138.0945  138.1171  162.0407 C.ar    1  UNL1        0.0021
     37 C         138.8144  138.5458  160.7965 C.ar    1  UNL1        0.0143
     38 C         140.3100  138.4541  160.7261 C.ar    1  UNL1        0.0447
     39 C         140.7829  144.2089  160.0502 C.3     1  UNL1        0.1746
     40 N         139.8288  143.7718  158.9785 N.ar    1  UNL1       -0.2239
     41 C         139.9674  144.0438  157.5099 C.ar    1  UNL1        0.1976
     42 N         138.7927  143.4260  156.8111 N.ar    1  UNL1       -0.2007
     43 C         137.9280  142.7721  157.8478 C.ar    1  UNL1        0.2210
     44 N         138.5683  142.9858  159.1873 N.ar    1  UNL1       -0.1448
@<TRIPOS>BOND
     1    31    32    1
     2    32    33   ar
     3    33    34    1
     4    33    35   ar
     5    35    36   ar
     6    36    37   ar
     7    37    38   ar
     8    38    25    1
     9    25    26    1
    10    26    27    1
    11    27    28    1
    12    28    24    1
    13    24    23    1
    14    23    22    1
    15    22    18    1
    16    18    19   am
    17    19    20    2
    18    19     1    1
    19     1     2   ar
    20     2     3   ar
    21     3     6    1
    22     6     7   ar
    23     7     8   ar
    24     8     9   ar
    25     9    10   ar
    26    10    11   ar
    27     3     4   ar
    28     4    12    1
    29    12    13   ar
    30    13    14   ar
    31    14    15   ar
    32    15    16   ar
    33    16    17   ar
    34     4     5   ar
    35     5    39    1
    36    39    40    1
    37    40    41   ar
    38    41    42   ar
    39    42    43   ar
    40    43    44   ar
    41    28    29    1
    42    29    30    1
    43    38    32   ar
    44    30    25    1
    45     5     1   ar
    46    44    40   ar
    47    11     6   ar
    48    17    12   ar
    49    18    21    1
@<TRIPOS>MOLECULE
*****
 44 49 0 0 0
SMALL
GASTEIGER

@<TRIPOS>ATOM
      1 C         139.5126  139.9524  160.6925 C.ar    1  UNL1        0.1499
      2 N         140.1620  139.2538  161.8502 N.ar    1  UNL1       -0.2222
      3 C         140.1276  140.1805  163.0292 C.ar    1  UNL1        0.1476
      4 N         139.4570  141.4518  162.6001 N.ar    1  UNL1       -0.2919
      5 C         139.0769  141.3109  161.1559 C.ar    1  UNL1        0.0894
      6 C         140.6689  139.8875  164.3970 C.ar    1  UNL1        0.0345
      7 C         139.7775  140.0060  165.5976 C.ar    1  UNL1        0.0030
      8 C         140.3188  139.7129  166.9655 C.ar    1  UNL1        0.0001
      9 C         141.7515  139.3013  167.1328 C.ar    1  UNL1        0.0000
     10 C         142.6429  139.1828  165.9322 C.ar    1  UNL1        0.0001
     11 C         142.1016  139.4759  164.5644 C.ar    1  UNL1        0.0030
     12 C         139.2099  142.6532  163.4636 C.ar    1  UNL1        0.0651
     13 C         140.3241  143.6177  163.7434 C.ar    1  UNL1        0.0176
     14 C         140.0770  144.8190  164.6069 C.ar    1  UNL1        0.0015
     15 C         138.7157  145.0560  165.1906 C.ar    1  UNL1        0.0001
     16 C         137.6014  144.0915  164.9107 C.ar    1  UNL1        0.0015
     17 C         137.8486  142.8902  164.0473 C.ar    1  UNL1        0.0176
     18 N         140.2868  138.3597  158.7914 N.am    1  UNL1       -0.2995
     19 C         139.3308  139.3910  159.3134 C.2     1  UNL1        0.2648
     20 O         138.1930  139.8610  158.4563 O.2     1  UNL1       -0.2684
     21 H         141.0336  138.0513  159.3539 H       1  UNL1        0.1498
     22 C         140.1050  137.7984  157.4123 C.3     1  UNL1        0.0912
     23 C         141.3027  137.5029  156.5589 C.3     1  UNL1        0.0386
     24 C         142.6540  137.3471  157.1910 C.3     1  UNL1        0.0739
     25 N         143.8317  139.9637  160.6575 N.pl3   1  UNL1       -0.3049
     26 C         143.8137  140.5247  159.2665 C.3     1  UNL1        0.1081
     27 C         143.4211  139.6526  158.1110 C.3     1  UNL1        0.0938
     28 N         143.0466  138.2193  158.3465 N.3     1  UNL1       -0.2697
     29 C         143.0646  137.6582  159.7375 C.3     1  UNL1        0.0938
     30 C         143.4572  138.5304  160.8930 C.3     1  UNL1        0.1081
     31 C         142.9041  142.8145  160.7680 C.3     1  UNL1        0.0332
     32 C         143.7605  142.2613  161.8683 C.ar    1  UNL1        0.0020
     33 C         144.1531  143.1335  163.0237 C.ar    1  UNL1        0.0549
     34 CL        143.6893  144.5589  163.0790 Cl      1  UNL1       -0.0825
     35 C         145.0095  142.5802  164.1240 C.ar    1  UNL1        0.0112
     36 C         145.4734  141.1548  164.0687 C.ar    1  UNL1        0.0021
     37 C         145.0808  140.2827  162.9132 C.ar    1  UNL1        0.0143
     38 C         144.2243  140.8359  161.8130 C.ar    1  UNL1        0.0447
     39 C         138.3829  142.3464  160.3218 C.3     1  UNL1        0.1746
     40 N         139.1865  143.2983  159.4862 N.ar    1  UNL1       -0.2239
     41 C         139.8978  144.5224  159.9818 C.ar    1  UNL1        0.1976
     42 N         140.5707  145.1737  158.8101 N.ar    1  UNL1       -0.2007
     43 C         140.2753  144.3523  157.5904 C.ar    1  UNL1        0.2210
     44 N         139.4198  143.1932  158.0082 N.ar    1  UNL1       -0.1448
@<TRIPOS>BOND
     1    31    32    1
     2    32    33   ar
     3    33    34    1
     4    33    35   ar
     5    35    36   ar
     6    36    37   ar
     7    37    38   ar
     8    38    25    1
     9    25    26    1
    10    26    27    1
    11    27    28    1
    12    28    24    1
    13    24    23    1
    14    23    22    1
    15    22    18    1
    16    18    19   am
    17    19    20    2
    18    19     1    1
    19     1     2   ar
    20     2     3   ar
    21     3     6    1
    22     6     7   ar
    23     7     8   ar
    24     8     9   ar
    25     9    10   ar
    26    10    11   ar
    27     3     4   ar
    28     4    12    1
    29    12    13   ar
    30    13    14   ar
    31    14    15   ar
    32    15    16   ar
    33    16    17   ar
    34     4     5   ar
    35     5    39    1
    36    39    40    1
    37    40    41   ar
    38    41    42   ar
    39    42    43   ar
    40    43    44   ar
    41    28    29    1
    42    29    30    1
    43    38    32   ar
    44    30    25    1
    45     5     1   ar
    46    44    40   ar
    47    11     6   ar
    48    17    12   ar
    49    18    21    1
@<TRIPOS>MOLECULE
*****
 44 49 0 0 0
SMALL
GASTEIGER

@<TRIPOS>ATOM
      1 C         139.5841  141.4142  159.6571 C.ar    1  UNL1        0.1499
      2 N         139.4244  142.6025  160.5585 N.ar    1  UNL1       -0.2222
      3 C         139.2845  142.1015  161.9655 C.ar    1  UNL1        0.1476
      4 N         139.3577  140.6037  161.9336 N.ar    1  UNL1       -0.2919
      5 C         139.5429  140.1788  160.5070 C.ar    1  UNL1        0.0894
      6 C         139.1032  142.9495  163.1894 C.ar    1  UNL1        0.0345
      7 C         140.2543  143.1720  164.1249 C.ar    1  UNL1        0.0030
      8 C         140.0730  144.0200  165.3488 C.ar    1  UNL1        0.0001
      9 C         138.7404  144.6455  165.6372 C.ar    1  UNL1        0.0000
     10 C         137.5892  144.4229  164.7017 C.ar    1  UNL1        0.0001
     11 C         137.7706  143.5750  163.4777 C.ar    1  UNL1        0.0030
     12 C         139.2624  139.6908  163.1200 C.ar    1  UNL1        0.0651
     13 C         138.2440  139.9544  164.1893 C.ar    1  UNL1        0.0176
     14 C         138.1487  139.0416  165.3757 C.ar    1  UNL1        0.0015
     15 C         139.0719  137.8651  165.4929 C.ar    1  UNL1        0.0001
     16 C         140.0903  137.6015  164.4237 C.ar    1  UNL1        0.0015
     17 C         140.1856  138.5143  163.2372 C.ar    1  UNL1        0.0176
     18 N         141.1198  141.2988  157.5647 N.am    1  UNL1       -0.2995
     19 C         139.7551  141.4543  158.1674 C.2     1  UNL1        0.2648
     20 O         138.5613  141.6498  157.2805 O.2     1  UNL1       -0.2684
     21 H         141.9034  141.1704  158.1468 H       1  UNL1        0.1498
     22 C         141.2908  141.3388  156.0750 C.3     1  UNL1        0.0912
     23 C         142.4411  142.0891  155.4719 C.3     1  UNL1        0.0386
     24 C         143.0102  143.2837  156.1784 C.3     1  UNL1        0.0739
     25 N         143.4547  143.2493  160.6562 N.pl3   1  UNL1       -0.3049
     26 C         144.3984  142.4550  159.8027 C.3     1  UNL1        0.1081
     27 C         144.2503  142.4665  158.3101 C.3     1  UNL1        0.0938
     28 N         143.1583  143.2723  157.6710 N.3     1  UNL1       -0.2697
     29 C         142.2146  144.0666  158.5244 C.3     1  UNL1        0.0938
     30 C         142.3628  144.0551  160.0171 C.3     1  UNL1        0.1081
     31 C         143.0700  140.6952  162.1822 C.3     1  UNL1        0.0332
     32 C         143.4105  141.9607  162.9118 C.ar    1  UNL1        0.0020
     33 C         143.5587  141.9493  164.4044 C.ar    1  UNL1        0.0549
     34 CL        143.3664  140.6722  165.1675 Cl      1  UNL1       -0.0825
     35 C         143.8992  143.2149  165.1341 C.ar    1  UNL1        0.0112
     36 C         144.0915  144.4919  164.3711 C.ar    1  UNL1        0.0021
     37 C         143.9433  144.5034  162.8785 C.ar    1  UNL1        0.0143
     38 C         143.6028  143.2378  162.1489 C.ar    1  UNL1        0.0447
     39 C         139.6653  138.7667  160.0163 C.3     1  UNL1        0.1746
     40 N         140.8209  138.3729  159.1449 N.ar    1  UNL1       -0.2239
     41 C         142.2491  138.2365  159.5826 C.ar    1  UNL1        0.1976
     42 N         143.0620  137.8257  158.3908 N.ar    1  UNL1       -0.2007
     43 C         142.1362  137.7082  157.2165 C.ar    1  UNL1        0.2210
     44 N         140.7512  138.0464  157.6825 N.ar    1  UNL1       -0.1448
@<TRIPOS>BOND
     1    31    32    1
     2    32    33   ar
     3    33    34    1
     4    33    35   ar
     5    35    36   ar
     6    36    37   ar
     7    37    38   ar
     8    38    25    1
     9    25    26    1
    10    26    27    1
    11    27    28    1
    12    28    24    1
    13    24    23    1
    14    23    22    1
    15    22    18    1
    16    18    19   am
    17    19    20    2
    18    19     1    1
    19     1     2   ar
    20     2     3   ar
    21     3     6    1
    22     6     7   ar
    23     7     8   ar
    24     8     9   ar
    25     9    10   ar
    26    10    11   ar
    27     3     4   ar
    28     4    12    1
    29    12    13   ar
    30    13    14   ar
    31    14    15   ar
    32    15    16   ar
    33    16    17   ar
    34     4     5   ar
    35     5    39    1
    36    39    40    1
    37    40    41   ar
    38    41    42   ar
    39    42    43   ar
    40    43    44   ar
    41    28    29    1
    42    29    30    1
    43    38    32   ar
    44    30    25    1
    45     5     1   ar
    46    44    40   ar
    47    11     6   ar
    48    17    12   ar
    49    18    21    1
@<TRIPOS>MOLECULE
*****
 44 49 0 0 0
SMALL
GASTEIGER

@<TRIPOS>ATOM
      1 C         140.3467  143.5515  158.7760 C.ar    1  UNL1        0.1499
      2 N         139.2786  143.6216  159.8269 N.ar    1  UNL1       -0.2222
      3 C         139.9465  143.5892  161.1696 C.ar    1  UNL1        0.1476
      4 N         141.4274  143.4989  160.9486 N.ar    1  UNL1       -0.2919
      5 C         141.6748  143.4756  159.4693 C.ar    1  UNL1        0.0894
      6 C         139.2550  143.6383  162.4997 C.ar    1  UNL1        0.0345
      7 C         138.4243  142.4759  162.9566 C.ar    1  UNL1        0.0030
      8 C         137.7328  142.5251  164.2868 C.ar    1  UNL1        0.0001
      9 C         137.8720  143.7367  165.1601 C.ar    1  UNL1        0.0000
     10 C         138.7028  144.8991  164.7032 C.ar    1  UNL1        0.0001
     11 C         139.3942  144.8499  163.3730 C.ar    1  UNL1        0.0030
     12 C         142.4767  143.4420  162.0189 C.ar    1  UNL1        0.0651
     13 C         142.8775  144.6927  162.7435 C.ar    1  UNL1        0.0176
     14 C         143.9269  144.6358  163.8138 C.ar    1  UNL1        0.0015
     15 C         144.5754  143.3282  164.1596 C.ar    1  UNL1        0.0001
     16 C         144.1746  142.0775  163.4350 C.ar    1  UNL1        0.0015
     17 C         143.1253  142.1344  162.3647 C.ar    1  UNL1        0.0176
     18 N         140.2325  142.2784  156.5140 N.am    1  UNL1       -0.2995
     19 C         140.1255  143.5563  157.2924 C.2     1  UNL1        0.2648
     20 O         139.7975  144.8388  156.5872 O.2     1  UNL1       -0.2684
     21 H         140.4478  141.4366  156.9769 H       1  UNL1        0.1498
     22 C         140.0114  142.2833  155.0304 C.3     1  UNL1        0.0912
     23 C         139.2621  141.1582  154.3802 C.3     1  UNL1        0.0386
     24 C         138.2330  140.3936  155.1588 C.3     1  UNL1        0.0739
     25 N         139.1378  139.0310  159.3510 N.pl3   1  UNL1       -0.3049
     26 C         139.7905  138.3511  158.1841 C.3     1  UNL1        0.1081
     27 C         139.4890  138.8053  156.7867 C.3     1  UNL1        0.0938
     28 N         138.5346  139.9394  156.5562 N.3     1  UNL1       -0.2697
     29 C         137.8819  140.6193  157.7231 C.3     1  UNL1        0.0938
     30 C         138.1835  140.1650  159.1205 C.3     1  UNL1        0.1081
     31 C         141.9621  139.0631  160.3621 C.3     1  UNL1        0.0332
     32 C         140.8516  138.5928  161.2539 C.ar    1  UNL1        0.0020
     33 C         141.1531  138.1386  162.6513 C.ar    1  UNL1        0.0549
     34 CL        142.5653  138.1546  163.1569 Cl      1  UNL1       -0.0825
     35 C         140.0425  137.6683  163.5432 C.ar    1  UNL1        0.0112
     36 C         138.6304  137.6523  163.0377 C.ar    1  UNL1        0.0021
     37 C         138.3288  138.1065  161.6403 C.ar    1  UNL1        0.0143
     38 C         139.4394  138.5768  160.7484 C.ar    1  UNL1        0.0447
     39 C         143.0148  143.3913  158.8007 C.3     1  UNL1        0.1746
     40 N         143.4552  142.1072  158.1626 N.ar    1  UNL1       -0.2239
     41 C         144.8713  141.7079  157.8708 C.ar    1  UNL1        0.1976
     42 N         144.8481  140.3509  157.2322 N.ar    1  UNL1       -0.2007
     43 C         143.4176  139.9115  157.1292 C.ar    1  UNL1        0.2210
     44 N         142.5567  140.9970  157.7042 N.ar    1  UNL1       -0.1448
@<TRIPOS>BOND
     1    31    32    1
     2    32    33   ar
     3    33    34    1
     4    33    35   ar
     5    35    36   ar
     6    36    37   ar
     7    37    38   ar
     8    38    25    1
     9    25    26    1
    10    26    27    1
    11    27    28    1
    12    28    24    1
    13    24    23    1
    14    23    22    1
    15    22    18    1
    16    18    19   am
    17    19    20    2
    18    19     1    1
    19     1     2   ar
    20     2     3   ar
    21     3     6    1
    22     6     7   ar
    23     7     8   ar
    24     8     9   ar
    25     9    10   ar
    26    10    11   ar
    27     3     4   ar
    28     4    12    1
    29    12    13   ar
    30    13    14   ar
    31    14    15   ar
    32    15    16   ar
    33    16    17   ar
    34     4     5   ar
    35     5    39    1
    36    39    40    1
    37    40    41   ar
    38    41    42   ar
    39    42    43   ar
    40    43    44   ar
    41    28    29    1
    42    29    30    1
    43    38    32   ar
    44    30    25    1
    45     5     1   ar
    46    44    40   ar
    47    11     6   ar
    48    17    12   ar
    49    18    21    1
