@<TRIPOS>MOLECULE
*****
 41 45 0 0 0
SMALL
GASTEIGER

@<TRIPOS>ATOM
      1 C         138.8131  142.0855  159.3404 C.3     1  UNL1        0.1103
      2 C         138.2958  142.5736  158.0197 C.3     1  UNL1        0.0828
      3 N         138.2970  141.6603  156.8299 N.3     1  UNL1       -0.2734
      4 C         138.8155  140.2588  156.9606 C.3     1  UNL1        0.0738
      5 C         139.3327  139.7707  158.2813 C.3     1  UNL1        0.0374
      6 C         139.3315  140.6840  159.4711 C.3     1  UNL1        0.0832
      7 C         137.7797  142.1484  155.5091 C.3     1  UNL1        0.0575
      8 C         137.3722  143.5829  155.3471 C.3     1  UNL1        0.0160
      9 C         136.8550  144.0711  154.0265 C.3     1  UNL1        0.0014
     10 C         136.7452  143.1247  152.8678 C.3     1  UNL1        0.0001
     11 C         137.1528  141.6903  153.0298 C.3     1  UNL1        0.0014
     12 C         137.6700  141.2021  154.3505 C.3     1  UNL1        0.0160
     13 N         140.0059  143.8607  160.8154 N.am    1  UNL1       -0.3021
     14 C         138.8119  142.9988  160.5303 C.2     1  UNL1        0.2252
     15 O         137.6166  143.0501  161.4351 O.2     1  UNL1       -0.2750
     16 H         140.7904  143.8270  160.2215 H       1  UNL1        0.1497
     17 C         139.8059  146.2490  161.8185 C.3     1  UNL1        0.0262
     18 C         140.0047  144.7741  162.0053 C.3     1  UNL1        0.0941
     19 C         140.2024  144.2124  163.3821 C.ar    1  UNL1       -0.0045
     20 C         141.4560  143.4574  163.7112 C.ar    1  UNL1       -0.0027
     21 C         141.6536  142.8957  165.0880 C.ar    1  UNL1       -0.0003
     22 C         140.5976  143.0889  166.1356 C.ar    1  UNL1       -0.0000
     23 C         139.3439  143.8440  165.8064 C.ar    1  UNL1       -0.0003
     24 C         139.1463  144.4057  164.4297 C.ar    1  UNL1       -0.0027
     25 N         139.8488  140.1959  160.7919 N.am    1  UNL1       -0.3006
     26 C         138.9071  139.5841  161.7864 C.2     1  UNL1        0.2669
     27 O         137.4482  139.4605  161.4602 O.2     1  UNL1       -0.2684
     28 H         140.8063  140.2770  161.0059 H       1  UNL1        0.1497
     29 C         139.4243  139.0960  163.1070 C.ar    1  UNL1        0.1761
     30 C         139.7021  139.9437  164.3129 C.ar    1  UNL1        0.0673
     31 C         140.2040  139.0461  165.4049 C.ar    1  UNL1        0.1792
     32 O         140.2364  137.6436  164.8738 O.2     1  UNL1       -0.3532
     33 N         139.7546  137.6745  163.4537 N.ar    1  UNL1       -0.0723
     34 C         140.6033  139.4756  166.7855 C.ar    1  UNL1        0.0648
     35 C         139.5545  139.8872  167.7757 C.ar    1  UNL1        0.0077
     36 C         139.9538  140.3167  169.1564 C.ar    1  UNL1        0.0299
     37 C         141.4021  140.3345  169.5468 C.ar    1  UNL1        0.1424
     38 F         141.8014  140.7640  170.9274 F       1  UNL1       -0.2041
     39 C         142.4509  139.9229  168.5565 C.ar    1  UNL1        0.0593
     40 C         142.0515  139.4934  167.1759 C.ar    1  UNL1        0.1453
     41 F         143.1003  139.0818  166.1857 F       1  UNL1       -0.2040
@<TRIPOS>BOND
     1    18    17    1
     2    18    13    1
     3    13    14   am
     4    14    15    2
     5     1    14    1
     6     1     2    1
     7     2     3    1
     8     3     7    1
     9     7     8    1
    10     8     9    1
    11     9    10    1
    12    10    11    1
    13    11    12    1
    14     3     4    1
    15     4     5    1
    16     5     6    1
    17     6    25    1
    18    25    26   am
    19    26    27    2
    20    26    29    1
    21    29    30   ar
    22    30    31   ar
    23    31    34    1
    24    34    35   ar
    25    35    36   ar
    26    36    37   ar
    27    37    38    1
    28    37    39   ar
    29    39    40   ar
    30    40    41    1
    31    31    32   ar
    32    32    33   ar
    33    18    19    1
    34    19    20   ar
    35    20    21   ar
    36    21    22   ar
    37    22    23   ar
    38    23    24   ar
    39     6     1    1
    40    33    29   ar
    41    24    19   ar
    42    12     7    1
    43    40    34   ar
    44    13    16    1
    45    25    28    1
@<TRIPOS>MOLECULE
*****
 41 45 0 0 0
SMALL
GASTEIGER

@<TRIPOS>ATOM
      1 C         142.0189  143.2781  159.9451 C.3     1  UNL1        0.1103
      2 C         141.8736  143.7160  158.5178 C.3     1  UNL1        0.0828
      3 N         141.1678  144.9996  158.1954 N.3     1  UNL1       -0.2734
      4 C         140.6073  145.8454  159.3001 C.3     1  UNL1        0.0738
      5 C         140.7525  145.4075  160.7274 C.3     1  UNL1        0.0374
      6 C         141.4583  144.1238  161.0498 C.3     1  UNL1        0.0832
      7 C         141.0226  145.4376  156.7680 C.3     1  UNL1        0.0575
      8 C         139.9401  146.4033  156.3863 C.3     1  UNL1        0.0160
      9 C         139.7948  146.8413  154.9591 C.3     1  UNL1        0.0014
     10 C         140.7320  146.3136  153.9135 C.3     1  UNL1        0.0001
     11 C         141.8145  145.3480  154.2952 C.3     1  UNL1        0.0014
     12 C         141.9598  144.9100  155.7225 C.3     1  UNL1        0.0160
     13 N         141.9740  140.8674  160.9129 N.am    1  UNL1       -0.3021
     14 C         142.7247  141.9943  160.2676 C.2     1  UNL1        0.2252
     15 O         144.1811  141.8377  159.9449 O.2     1  UNL1       -0.2750
     16 H         141.0181  140.9702  161.1247 H       1  UNL1        0.1497
     17 C         142.9512  138.5839  160.1506 C.3     1  UNL1        0.0262
     18 C         142.6798  139.5836  161.2354 C.3     1  UNL1        0.0941
     19 C         143.1143  139.2997  162.6428 C.ar    1  UNL1       -0.0045
     20 C         144.4491  139.7827  163.1275 C.ar    1  UNL1       -0.0027
     21 C         144.8835  139.4988  164.5349 C.ar    1  UNL1       -0.0003
     22 C         143.9831  138.7320  165.4575 C.ar    1  UNL1       -0.0000
     23 C         142.6482  138.2490  164.9728 C.ar    1  UNL1       -0.0003
     24 C         142.2138  138.5329  163.5654 C.ar    1  UNL1       -0.0027
     25 N         141.6036  143.6858  162.4772 N.am    1  UNL1       -0.3006
     26 C         142.9296  143.8075  163.1677 C.2     1  UNL1        0.2669
     27 O         144.1104  144.3671  162.4310 O.2     1  UNL1       -0.2684
     28 H         140.8286  143.3185  162.9607 H       1  UNL1        0.1497
     29 C         143.0749  143.3695  164.5950 C.ar    1  UNL1        0.1761
     30 C         142.0573  142.6078  165.3914 C.ar    1  UNL1        0.0673
     31 C         142.6168  142.3839  166.7650 C.ar    1  UNL1        0.1792
     32 O         143.9802  143.0072  166.8175 O.2     1  UNL1       -0.3532
     33 N         144.2633  143.6163  165.4763 N.ar    1  UNL1       -0.0723
     34 C         141.9330  141.6632  167.8889 C.ar    1  UNL1        0.0648
     35 C         142.4922  140.3686  168.4000 C.ar    1  UNL1        0.0077
     36 C         141.8084  139.6478  169.5238 C.ar    1  UNL1        0.0299
     37 C         140.5653  140.2218  170.1366 C.ar    1  UNL1        0.1424
     38 F         139.8815  139.5011  171.2604 F       1  UNL1       -0.2041
     39 C         140.0061  141.5165  169.6255 C.ar    1  UNL1        0.0593
     40 C         140.6900  142.2371  168.5016 C.ar    1  UNL1        0.1453
     41 F         140.1308  143.5318  167.9905 F       1  UNL1       -0.2040
@<TRIPOS>BOND
     1    18    17    1
     2    18    13    1
     3    13    14   am
     4    14    15    2
     5     1    14    1
     6     1     2    1
     7     2     3    1
     8     3     7    1
     9     7     8    1
    10     8     9    1
    11     9    10    1
    12    10    11    1
    13    11    12    1
    14     3     4    1
    15     4     5    1
    16     5     6    1
    17     6    25    1
    18    25    26   am
    19    26    27    2
    20    26    29    1
    21    29    30   ar
    22    30    31   ar
    23    31    34    1
    24    34    35   ar
    25    35    36   ar
    26    36    37   ar
    27    37    38    1
    28    37    39   ar
    29    39    40   ar
    30    40    41    1
    31    31    32   ar
    32    32    33   ar
    33    18    19    1
    34    19    20   ar
    35    20    21   ar
    36    21    22   ar
    37    22    23   ar
    38    23    24   ar
    39     6     1    1
    40    33    29   ar
    41    24    19   ar
    42    12     7    1
    43    40    34   ar
    44    13    16    1
    45    25    28    1
@<TRIPOS>MOLECULE
*****
 41 45 0 0 0
SMALL
GASTEIGER

@<TRIPOS>ATOM
      1 C         139.5499  142.9073  159.8028 C.3     1  UNL1        0.1103
      2 C         139.6711  143.1662  158.3303 C.3     1  UNL1        0.0828
      3 N         140.1008  144.5168  157.8393 N.3     1  UNL1       -0.2734
      4 C         140.4093  145.6085  158.8207 C.3     1  UNL1        0.0738
      5 C         140.2880  145.3495  160.2931 C.3     1  UNL1        0.0374
      6 C         139.8583  143.9989  160.7842 C.3     1  UNL1        0.0832
      7 C         140.2221  144.7758  156.3667 C.3     1  UNL1        0.0575
      8 C         140.2563  146.1848  155.8534 C.3     1  UNL1        0.0160
      9 C         140.3775  146.4438  154.3809 C.3     1  UNL1        0.0014
     10 C         140.4646  145.2938  153.4217 C.3     1  UNL1        0.0001
     11 C         140.4305  143.8848  153.9351 C.3     1  UNL1        0.0014
     12 C         140.3092  143.6258  155.4076 C.3     1  UNL1        0.0160
     13 N         140.0564  140.7266  161.1212 N.am    1  UNL1       -0.3021
     14 C         139.1201  141.5566  160.2939 C.2     1  UNL1        0.2252
     15 O         137.7541  141.0361  159.9578 O.2     1  UNL1       -0.2750
     16 H         140.9530  141.0683  161.3418 H       1  UNL1        0.1497
     17 C         139.6310  138.2021  160.6786 C.3     1  UNL1        0.0262
     18 C         139.6267  139.3759  161.6123 C.3     1  UNL1        0.0941
     19 C         139.1927  139.1993  163.0373 C.ar    1  UNL1       -0.0045
     20 C         139.2883  137.8516  163.6888 C.ar    1  UNL1       -0.0027
     21 C         138.8543  137.6749  165.1137 C.ar    1  UNL1       -0.0003
     22 C         138.3246  138.8459  165.8871 C.ar    1  UNL1       -0.0000
     23 C         138.2289  140.1937  165.2356 C.ar    1  UNL1       -0.0003
     24 C         138.6629  140.3703  163.8106 C.ar    1  UNL1       -0.0027
     25 N         139.7370  143.7399  162.2567 N.am    1  UNL1       -0.3006
     26 C         140.9657  143.4750  163.0753 C.2     1  UNL1        0.2669
     27 O         142.3157  143.4691  162.4214 O.2     1  UNL1       -0.2684
     28 H         138.8510  143.7438  162.6859 H       1  UNL1        0.1497
     29 C         140.8445  143.2160  164.5478 C.ar    1  UNL1        0.1761
     30 C         141.7425  142.3351  165.3649 C.ar    1  UNL1        0.0673
     31 C         141.2570  142.3671  166.7838 C.ar    1  UNL1        0.1792
     32 O         140.0590  143.2678  166.8436 O.2     1  UNL1       -0.3532
     33 N         139.8041  143.7925  165.4617 N.ar    1  UNL1       -0.0723
     34 C         141.8631  141.6282  167.9399 C.ar    1  UNL1        0.0648
     35 C         142.4670  142.3892  169.0828 C.ar    1  UNL1        0.0077
     36 C         143.0732  141.6503  170.2390 C.ar    1  UNL1        0.0299
     37 C         143.0754  140.1503  170.2522 C.ar    1  UNL1        0.1424
     38 F         143.6815  139.4113  171.4083 F       1  UNL1       -0.2041
     39 C         142.4715  139.3893  169.1093 C.ar    1  UNL1        0.0593
     40 C         141.8653  140.1283  167.9531 C.ar    1  UNL1        0.1453
     41 F         141.2614  139.3673  166.8103 F       1  UNL1       -0.2040
@<TRIPOS>BOND
     1    18    17    1
     2    18    13    1
     3    13    14   am
     4    14    15    2
     5     1    14    1
     6     1     2    1
     7     2     3    1
     8     3     7    1
     9     7     8    1
    10     8     9    1
    11     9    10    1
    12    10    11    1
    13    11    12    1
    14     3     4    1
    15     4     5    1
    16     5     6    1
    17     6    25    1
    18    25    26   am
    19    26    27    2
    20    26    29    1
    21    29    30   ar
    22    30    31   ar
    23    31    34    1
    24    34    35   ar
    25    35    36   ar
    26    36    37   ar
    27    37    38    1
    28    37    39   ar
    29    39    40   ar
    30    40    41    1
    31    31    32   ar
    32    32    33   ar
    33    18    19    1
    34    19    20   ar
    35    20    21   ar
    36    21    22   ar
    37    22    23   ar
    38    23    24   ar
    39     6     1    1
    40    33    29   ar
    41    24    19   ar
    42    12     7    1
    43    40    34   ar
    44    13    16    1
    45    25    28    1
@<TRIPOS>MOLECULE
*****
 41 45 0 0 0
SMALL
GASTEIGER

@<TRIPOS>ATOM
      1 C         142.4869  140.3088  160.4082 C.3     1  UNL1        0.1103
      2 C         142.7546  140.1826  158.9378 C.3     1  UNL1        0.0828
      3 N         142.9545  138.8280  158.3254 N.3     1  UNL1       -0.2734
      4 C         142.8868  137.5996  159.1836 C.3     1  UNL1        0.0738
      5 C         142.6191  137.7258  160.6540 C.3     1  UNL1        0.0374
      6 C         142.4191  139.0804  161.2664 C.3     1  UNL1        0.0832
      7 C         143.2223  138.7018  156.8549 C.3     1  UNL1        0.0575
      8 C         144.0875  139.7115  156.1607 C.3     1  UNL1        0.0160
      9 C         144.3553  139.5853  154.6902 C.3     1  UNL1        0.0014
     10 C         143.7577  138.4493  153.9138 C.3     1  UNL1        0.0001
     11 C         142.8924  137.4397  154.6080 C.3     1  UNL1        0.0014
     12 C         142.6247  137.5659  156.0785 C.3     1  UNL1        0.0160
     13 N         140.9933  142.3950  160.8171 N.am    1  UNL1       -0.3021
     14 C         142.2869  141.6635  161.0207 C.2     1  UNL1        0.2252
     15 O         143.3806  142.2865  161.8366 O.2     1  UNL1       -0.2750
     16 H         140.2755  141.9861  160.2816 H       1  UNL1        0.1497
     17 C         141.1864  144.9818  160.6696 C.3     1  UNL1        0.0262
     18 C         140.7934  143.7497  161.4295 C.3     1  UNL1        0.0941
     19 C         140.2003  143.8722  162.8019 C.ar    1  UNL1       -0.0045
     20 C         138.7932  144.3637  162.9697 C.ar    1  UNL1       -0.0027
     21 C         138.2002  144.4863  164.3420 C.ar    1  UNL1       -0.0003
     22 C         139.0143  144.1172  165.5466 C.ar    1  UNL1       -0.0000
     23 C         140.4216  143.6257  165.3788 C.ar    1  UNL1       -0.0003
     24 C         141.0146  143.5032  164.0064 C.ar    1  UNL1       -0.0027
     25 N         142.1514  139.2067  162.7369 N.am    1  UNL1       -0.3006
     26 C         143.2943  139.2268  163.7083 C.2     1  UNL1        0.2669
     27 O         144.7048  139.1207  163.2091 O.2     1  UNL1       -0.2684
     28 H         141.2257  139.2763  163.0646 H       1  UNL1        0.1497
     29 C         143.0266  139.3530  165.1788 C.ar    1  UNL1        0.1761
     30 C         142.1362  140.3703  165.8287 C.ar    1  UNL1        0.0673
     31 C         142.1617  140.1302  167.3091 C.ar    1  UNL1        0.1792
     32 O         143.0678  138.9645  167.5742 O.2     1  UNL1       -0.3532
     33 N         143.6024  138.4842  166.2575 N.ar    1  UNL1       -0.0723
     34 C         141.4125  140.9174  168.3430 C.ar    1  UNL1        0.0648
     35 C         140.1333  140.3804  168.9132 C.ar    1  UNL1        0.0077
     36 C         139.3840  141.1676  169.9471 C.ar    1  UNL1        0.0299
     37 C         139.9142  142.4920  170.4108 C.ar    1  UNL1        0.1424
     38 F         139.1650  143.2793  171.4448 F       1  UNL1       -0.2041
     39 C         141.1934  143.0291  169.8407 C.ar    1  UNL1        0.0593
     40 C         141.9426  142.2418  168.8068 C.ar    1  UNL1        0.1453
     41 F         143.2218  142.7789  168.2366 F       1  UNL1       -0.2040
@<TRIPOS>BOND
     1    18    17    1
     2    18    13    1
     3    13    14   am
     4    14    15    2
     5     1    14    1
     6     1     2    1
     7     2     3    1
     8     3     7    1
     9     7     8    1
    10     8     9    1
    11     9    10    1
    12    10    11    1
    13    11    12    1
    14     3     4    1
    15     4     5    1
    16     5     6    1
    17     6    25    1
    18    25    26   am
    19    26    27    2
    20    26    29    1
    21    29    30   ar
    22    30    31   ar
    23    31    34    1
    24    34    35   ar
    25    35    36   ar
    26    36    37   ar
    27    37    38    1
    28    37    39   ar
    29    39    40   ar
    30    40    41    1
    31    31    32   ar
    32    32    33   ar
    33    18    19    1
    34    19    20   ar
    35    20    21   ar
    36    21    22   ar
    37    22    23   ar
    38    23    24   ar
    39     6     1    1
    40    33    29   ar
    41    24    19   ar
    42    12     7    1
    43    40    34   ar
    44    13    16    1
    45    25    28    1
@<TRIPOS>MOLECULE
*****
 41 45 0 0 0
SMALL
GASTEIGER

@<TRIPOS>ATOM
      1 C         140.3562  142.7336  160.1519 C.3     1  UNL1        0.1103
      2 C         140.1666  143.0250  158.6928 C.3     1  UNL1        0.0828
      3 N         140.5888  144.3505  158.1317 N.3     1  UNL1       -0.2734
      4 C         141.2006  145.3845  159.0298 C.3     1  UNL1        0.0738
      5 C         141.3901  145.0931  160.4889 C.3     1  UNL1        0.0374
      6 C         140.9679  143.7677  161.0500 C.3     1  UNL1        0.0832
      7 C         140.3993  144.6420  156.6725 C.3     1  UNL1        0.0575
      8 C         140.4796  143.5300  155.6690 C.3     1  UNL1        0.0160
      9 C         140.2901  143.8214  154.2099 C.3     1  UNL1        0.0014
     10 C         140.0202  145.2248  153.7542 C.3     1  UNL1        0.0001
     11 C         139.9399  146.3368  154.7577 C.3     1  UNL1        0.0014
     12 C         140.1294  146.0453  156.2169 C.3     1  UNL1        0.0160
     13 N         138.6244  141.2814  161.4334 N.am    1  UNL1       -0.3021
     14 C         139.9340  141.4081  160.7131 C.2     1  UNL1        0.2252
     15 O         140.8214  140.2093  160.5539 O.2     1  UNL1       -0.2750
     16 H         138.0419  142.0682  161.5378 H       1  UNL1        0.1497
     17 C         137.5415  138.9422  161.1080 C.3     1  UNL1        0.0262
     18 C         138.2022  139.9559  161.9945 C.3     1  UNL1        0.0941
     19 C         138.4407  139.6441  163.4422 C.ar    1  UNL1       -0.0045
     20 C         138.3116  140.7256  164.4735 C.ar    1  UNL1       -0.0027
     21 C         138.5501  140.4138  165.9212 C.ar    1  UNL1       -0.0003
     22 C         138.9178  139.0204  166.3377 C.ar    1  UNL1       -0.0000
     23 C         139.0469  137.9388  165.3063 C.ar    1  UNL1       -0.0003
     24 C         138.8084  138.2506  163.8586 C.ar    1  UNL1       -0.0027
     25 N         141.1575  143.4762  162.5092 N.am    1  UNL1       -0.3006
     26 C         142.5121  143.0943  163.0279 C.2     1  UNL1        0.2669
     27 O         143.6772  143.0038  162.0874 O.2     1  UNL1       -0.2684
     28 H         140.3928  143.5356  163.1264 H       1  UNL1        0.1497
     29 C         142.7017  142.8028  164.4870 C.ar    1  UNL1        0.1761
     30 C         141.7321  142.0810  165.3752 C.ar    1  UNL1        0.0673
     31 C         142.3253  142.0141  166.7512 C.ar    1  UNL1        0.1792
     32 O         143.6616  142.6945  166.7136 O.2     1  UNL1       -0.3532
     33 N         143.8942  143.1820  165.3142 N.ar    1  UNL1       -0.0723
     34 C         141.6932  141.3783  167.9539 C.ar    1  UNL1        0.0648
     35 C         142.2340  140.0862  168.4905 C.ar    1  UNL1        0.0077
     36 C         141.6020  139.4503  169.6931 C.ar    1  UNL1        0.0299
     37 C         140.4290  140.1067  170.3591 C.ar    1  UNL1        0.1424
     38 F         139.7970  139.4709  171.5617 F       1  UNL1       -0.2041
     39 C         139.8882  141.3988  169.8225 C.ar    1  UNL1        0.0593
     40 C         140.5203  142.0346  168.6198 C.ar    1  UNL1        0.1453
     41 F         139.9795  143.3267  168.0832 F       1  UNL1       -0.2040
@<TRIPOS>BOND
     1    18    17    1
     2    18    13    1
     3    13    14   am
     4    14    15    2
     5     1    14    1
     6     1     2    1
     7     2     3    1
     8     3     7    1
     9     7     8    1
    10     8     9    1
    11     9    10    1
    12    10    11    1
    13    11    12    1
    14     3     4    1
    15     4     5    1
    16     5     6    1
    17     6    25    1
    18    25    26   am
    19    26    27    2
    20    26    29    1
    21    29    30   ar
    22    30    31   ar
    23    31    34    1
    24    34    35   ar
    25    35    36   ar
    26    36    37   ar
    27    37    38    1
    28    37    39   ar
    29    39    40   ar
    30    40    41    1
    31    31    32   ar
    32    32    33   ar
    33    18    19    1
    34    19    20   ar
    35    20    21   ar
    36    21    22   ar
    37    22    23   ar
    38    23    24   ar
    39     6     1    1
    40    33    29   ar
    41    24    19   ar
    42    12     7    1
    43    40    34   ar
    44    13    16    1
    45    25    28    1
@<TRIPOS>MOLECULE
*****
 41 45 0 0 0
SMALL
GASTEIGER

@<TRIPOS>ATOM
      1 C         141.9043  137.4331  157.3624 C.3     1  UNL1        0.1103
      2 C         142.3466  136.1492  156.7255 C.3     1  UNL1        0.0828
      3 N         141.6104  135.6101  155.5350 N.3     1  UNL1       -0.2734
      4 C         140.4319  136.3550  154.9814 C.3     1  UNL1        0.0738
      5 C         139.9897  137.6390  155.6184 C.3     1  UNL1        0.0374
      6 C         140.7259  138.1781  156.8089 C.3     1  UNL1        0.0832
      7 C         142.0526  134.3260  154.8979 C.3     1  UNL1        0.0575
      8 C         142.8628  133.3387  155.6845 C.3     1  UNL1        0.0160
      9 C         143.3051  132.0547  155.0476 C.3     1  UNL1        0.0014
     10 C         142.9370  131.7580  153.6240 C.3     1  UNL1        0.0001
     11 C         142.1267  132.7453  152.8374 C.3     1  UNL1        0.0014
     12 C         141.6845  134.0293  153.4744 C.3     1  UNL1        0.0160
     13 N         142.2632  137.5247  159.9340 N.am    1  UNL1       -0.3021
     14 C         142.6405  137.9723  158.5530 C.2     1  UNL1        0.2252
     15 O         143.7541  138.9591  158.3625 O.2     1  UNL1       -0.2750
     16 H         141.5323  136.8770  160.0590 H       1  UNL1        0.1497
     17 C         144.4294  137.6773  161.3603 C.3     1  UNL1        0.0262
     18 C         142.9994  138.0638  161.1246 C.3     1  UNL1        0.0941
     19 C         142.3055  138.9895  162.0794 C.ar    1  UNL1       -0.0045
     20 C         142.7536  140.4158  162.2005 C.ar    1  UNL1       -0.0027
     21 C         142.0597  141.3415  163.1553 C.ar    1  UNL1       -0.0003
     22 C         140.9177  140.8408  163.9890 C.ar    1  UNL1       -0.0000
     23 C         140.4695  139.4144  163.8679 C.ar    1  UNL1       -0.0003
     24 C         141.1634  138.4887  162.9131 C.ar    1  UNL1       -0.0027
     25 N         140.2837  139.4621  157.4459 N.am    1  UNL1       -0.3006
     26 C         139.5412  139.4361  158.7490 C.2     1  UNL1        0.2669
     27 O         139.2409  138.1260  159.4150 O.2     1  UNL1       -0.2684
     28 H         140.4808  140.3219  157.0087 H       1  UNL1        0.1497
     29 C         139.0990  140.7200  159.3860 C.ar    1  UNL1        0.1761
     30 C         139.2572  141.0872  160.8317 C.ar    1  UNL1        0.0673
     31 C         138.6769  142.4564  161.0284 C.ar    1  UNL1        0.1792
     32 O         138.1600  142.9354  159.7042 O.2     1  UNL1       -0.3532
     33 N         138.4208  141.8622  158.6892 N.ar    1  UNL1       -0.0723
     34 C         138.6230  143.2136  162.3221 C.ar    1  UNL1        0.0648
     35 C         139.5088  144.4059  162.5308 C.ar    1  UNL1        0.0077
     36 C         139.4550  145.1632  163.8245 C.ar    1  UNL1        0.0299
     37 C         138.5151  144.7281  164.9096 C.ar    1  UNL1        0.1424
     38 F         138.4611  145.4853  166.2033 F       1  UNL1       -0.2041
     39 C         137.6292  143.5357  164.7009 C.ar    1  UNL1        0.0593
     40 C         137.6832  142.7785  163.4072 C.ar    1  UNL1        0.1453
     41 F         136.7973  141.5861  163.1986 F       1  UNL1       -0.2040
@<TRIPOS>BOND
     1    18    17    1
     2    18    13    1
     3    13    14   am
     4    14    15    2
     5     1    14    1
     6     1     2    1
     7     2     3    1
     8     3     7    1
     9     7     8    1
    10     8     9    1
    11     9    10    1
    12    10    11    1
    13    11    12    1
    14     3     4    1
    15     4     5    1
    16     5     6    1
    17     6    25    1
    18    25    26   am
    19    26    27    2
    20    26    29    1
    21    29    30   ar
    22    30    31   ar
    23    31    34    1
    24    34    35   ar
    25    35    36   ar
    26    36    37   ar
    27    37    38    1
    28    37    39   ar
    29    39    40   ar
    30    40    41    1
    31    31    32   ar
    32    32    33   ar
    33    18    19    1
    34    19    20   ar
    35    20    21   ar
    36    21    22   ar
    37    22    23   ar
    38    23    24   ar
    39     6     1    1
    40    33    29   ar
    41    24    19   ar
    42    12     7    1
    43    40    34   ar
    44    13    16    1
    45    25    28    1
@<TRIPOS>MOLECULE
*****
 41 45 0 0 0
SMALL
GASTEIGER

@<TRIPOS>ATOM
      1 C         141.3486  139.4834  160.0096 C.3     1  UNL1        0.1103
      2 C         141.2089  139.0653  158.5758 C.3     1  UNL1        0.0828
      3 N         142.0010  137.9039  158.0528 N.3     1  UNL1       -0.2734
      4 C         142.9327  137.1606  158.9634 C.3     1  UNL1        0.0738
      5 C         143.0723  137.5786  160.3972 C.3     1  UNL1        0.0374
      6 C         142.2803  138.7400  160.9203 C.3     1  UNL1        0.0832
      7 C         141.8614  137.4858  156.6189 C.3     1  UNL1        0.0575
      8 C         142.9116  136.6237  155.9835 C.3     1  UNL1        0.0160
      9 C         142.7721  136.2056  154.5497 C.3     1  UNL1        0.0014
     10 C         141.5823  136.6496  153.7514 C.3     1  UNL1        0.0001
     11 C         140.5320  137.5117  154.3868 C.3     1  UNL1        0.0014
     12 C         140.6716  137.9298  155.8207 C.3     1  UNL1        0.0160
     13 N         141.1986  141.9946  160.6590 N.am    1  UNL1       -0.3021
     14 C         140.5565  140.6449  160.5327 C.2     1  UNL1        0.2252
     15 O         139.1222  140.4566  160.9296 O.2     1  UNL1       -0.2750
     16 H         142.1399  142.1181  160.3985 H       1  UNL1        0.1497
     17 C         139.8546  144.1765  160.2313 C.3     1  UNL1        0.0262
     18 C         140.4065  143.1561  161.1821 C.3     1  UNL1        0.0941
     19 C         140.1663  143.2970  162.6560 C.ar    1  UNL1       -0.0045
     20 C         138.7774  143.5346  163.1703 C.ar    1  UNL1       -0.0027
     21 C         138.5372  143.6755  164.6442 C.ar    1  UNL1       -0.0003
     22 C         139.6859  143.5788  165.6039 C.ar    1  UNL1       -0.0000
     23 C         141.0749  143.3411  165.0897 C.ar    1  UNL1       -0.0003
     24 C         141.3151  143.2002  163.6157 C.ar    1  UNL1       -0.0027
     25 N         142.4199  139.1581  162.3541 N.am    1  UNL1       -0.3006
     26 C         141.8625  138.2929  163.4453 C.2     1  UNL1        0.2669
     27 O         141.1656  137.0095  163.1026 O.2     1  UNL1       -0.2684
     28 H         142.8773  140.0004  162.5789 H       1  UNL1        0.1497
     29 C         142.0021  138.7109  164.8790 C.ar    1  UNL1        0.1761
     30 C         141.1299  139.6963  165.5990 C.ar    1  UNL1        0.0673
     31 C         141.6271  139.8114  167.0095 C.ar    1  UNL1        0.1792
     32 O         142.8066  138.8971  167.1613 O.2     1  UNL1       -0.3532
     33 N         143.0383  138.2170  165.8446 N.ar    1  UNL1       -0.0723
     34 C         141.0468  140.6871  168.0802 C.ar    1  UNL1        0.0648
     35 C         139.8362  140.2368  168.8430 C.ar    1  UNL1        0.0077
     36 C         139.2558  141.1124  169.9138 C.ar    1  UNL1        0.0299
     37 C         139.8860  142.4383  170.2217 C.ar    1  UNL1        0.1424
     38 F         139.3057  143.3140  171.2925 F       1  UNL1       -0.2041
     39 C         141.0966  142.8886  169.4589 C.ar    1  UNL1        0.0593
     40 C         141.6769  142.0130  168.3882 C.ar    1  UNL1        0.1453
     41 F         142.8874  142.4632  167.6254 F       1  UNL1       -0.2040
@<TRIPOS>BOND
     1    18    17    1
     2    18    13    1
     3    13    14   am
     4    14    15    2
     5     1    14    1
     6     1     2    1
     7     2     3    1
     8     3     7    1
     9     7     8    1
    10     8     9    1
    11     9    10    1
    12    10    11    1
    13    11    12    1
    14     3     4    1
    15     4     5    1
    16     5     6    1
    17     6    25    1
    18    25    26   am
    19    26    27    2
    20    26    29    1
    21    29    30   ar
    22    30    31   ar
    23    31    34    1
    24    34    35   ar
    25    35    36   ar
    26    36    37   ar
    27    37    38    1
    28    37    39   ar
    29    39    40   ar
    30    40    41    1
    31    31    32   ar
    32    32    33   ar
    33    18    19    1
    34    19    20   ar
    35    20    21   ar
    36    21    22   ar
    37    22    23   ar
    38    23    24   ar
    39     6     1    1
    40    33    29   ar
    41    24    19   ar
    42    12     7    1
    43    40    34   ar
    44    13    16    1
    45    25    28    1
@<TRIPOS>MOLECULE
*****
 41 45 0 0 0
SMALL
GASTEIGER

@<TRIPOS>ATOM
      1 C         142.2015  140.8732  159.6812 C.3     1  UNL1        0.1103
      2 C         142.6887  140.8899  158.2627 C.3     1  UNL1        0.0828
      3 N         143.0439  139.6043  157.5765 N.3     1  UNL1       -0.2734
      4 C         142.9118  138.3019  158.3088 C.3     1  UNL1        0.0738
      5 C         142.4246  138.2851  159.7274 C.3     1  UNL1        0.0374
      6 C         142.0695  139.5708  160.4136 C.3     1  UNL1        0.0832
      7 C         143.5311  139.6209  156.1579 C.3     1  UNL1        0.0575
      8 C         142.6386  139.1393  155.0527 C.3     1  UNL1        0.0160
      9 C         143.1258  139.1559  153.6341 C.3     1  UNL1        0.0014
     10 C         144.5055  139.6543  153.3207 C.3     1  UNL1        0.0001
     11 C         145.3979  140.1360  154.4259 C.3     1  UNL1        0.0014
     12 C         144.9107  140.1193  155.8445 C.3     1  UNL1        0.0160
     13 N         140.4611  142.7196  160.2394 N.am    1  UNL1       -0.3021
     14 C         141.8464  142.1589  160.3675 C.2     1  UNL1        0.2252
     15 O         142.8766  142.8838  161.1819 O.2     1  UNL1       -0.2750
     16 H         139.7849  142.2438  159.7049 H       1  UNL1        0.1497
     17 C         140.4588  145.3172  160.2899 C.3     1  UNL1        0.0262
     18 C         140.1059  144.0053  160.9257 C.3     1  UNL1        0.0941
     19 C         139.3979  143.9790  162.2478 C.ar    1  UNL1       -0.0045
     20 C         139.8191  144.9136  163.3429 C.ar    1  UNL1       -0.0027
     21 C         139.1111  144.8873  164.6650 C.ar    1  UNL1       -0.0003
     22 C         137.9819  143.9264  164.8921 C.ar    1  UNL1       -0.0000
     23 C         137.5606  142.9918  163.7970 C.ar    1  UNL1       -0.0003
     24 C         138.2686  143.0181  162.4749 C.ar    1  UNL1       -0.0027
     25 N         141.5823  139.5541  161.8322 N.am    1  UNL1       -0.3006
     26 C         140.1211  139.7248  162.1254 C.2     1  UNL1        0.2669
     27 O         139.1472  139.9123  161.0000 O.2     1  UNL1       -0.2684
     28 H         142.2215  139.4311  162.5708 H       1  UNL1        0.1497
     29 C         139.6339  139.7082  163.5439 C.ar    1  UNL1        0.1761
     30 C         140.2170  140.4870  164.6856 C.ar    1  UNL1        0.0673
     31 C         139.4215  140.1699  165.9172 C.ar    1  UNL1        0.1792
     32 O         138.3467  139.1951  165.5366 O.2     1  UNL1       -0.3532
     33 N         138.4780  138.9098  164.0699 N.ar    1  UNL1       -0.0723
     34 C         139.6590  140.7294  167.2885 C.ar    1  UNL1        0.0648
     35 C         139.1687  139.9875  168.4965 C.ar    1  UNL1        0.0077
     36 C         139.4061  140.5469  169.8679 C.ar    1  UNL1        0.0299
     37 C         140.1340  141.8483  170.0312 C.ar    1  UNL1        0.1424
     38 F         140.3716  142.4078  171.4026 F       1  UNL1       -0.2041
     39 C         140.6244  142.5902  168.8233 C.ar    1  UNL1        0.0593
     40 C         140.3868  142.0307  167.4519 C.ar    1  UNL1        0.1453
     41 F         140.8772  142.7726  166.2439 F       1  UNL1       -0.2040
@<TRIPOS>BOND
     1    18    17    1
     2    18    13    1
     3    13    14   am
     4    14    15    2
     5     1    14    1
     6     1     2    1
     7     2     3    1
     8     3     7    1
     9     7     8    1
    10     8     9    1
    11     9    10    1
    12    10    11    1
    13    11    12    1
    14     3     4    1
    15     4     5    1
    16     5     6    1
    17     6    25    1
    18    25    26   am
    19    26    27    2
    20    26    29    1
    21    29    30   ar
    22    30    31   ar
    23    31    34    1
    24    34    35   ar
    25    35    36   ar
    26    36    37   ar
    27    37    38    1
    28    37    39   ar
    29    39    40   ar
    30    40    41    1
    31    31    32   ar
    32    32    33   ar
    33    18    19    1
    34    19    20   ar
    35    20    21   ar
    36    21    22   ar
    37    22    23   ar
    38    23    24   ar
    39     6     1    1
    40    33    29   ar
    41    24    19   ar
    42    12     7    1
    43    40    34   ar
    44    13    16    1
    45    25    28    1
@<TRIPOS>MOLECULE
*****
 41 45 0 0 0
SMALL
GASTEIGER

@<TRIPOS>ATOM
      1 C         140.7096  142.9221  159.0823 C.3     1  UNL1        0.1103
      2 C         140.7828  143.5647  157.7289 C.3     1  UNL1        0.0828
      3 N         140.5873  145.0454  157.5902 N.3     1  UNL1       -0.2734
      4 C         140.3185  145.8834  158.8049 C.3     1  UNL1        0.0738
      5 C         140.2453  145.2408  160.1582 C.3     1  UNL1        0.0374
      6 C         140.4409  143.7602  160.2969 C.3     1  UNL1        0.0832
      7 C         140.6605  145.6881  156.2368 C.3     1  UNL1        0.0575
      8 C         141.6035  145.1507  155.2014 C.3     1  UNL1        0.0160
      9 C         141.6767  145.7933  153.8480 C.3     1  UNL1        0.0014
     10 C         140.8070  146.9734  153.5300 C.3     1  UNL1        0.0001
     11 C         139.8640  147.5107  154.5654 C.3     1  UNL1        0.0014
     12 C         139.7908  146.8680  155.9188 C.3     1  UNL1        0.0160
     13 N         139.7200  140.5436  159.4191 N.am    1  UNL1       -0.3021
     14 C         140.9052  141.4413  159.2210 C.2     1  UNL1        0.2252
     15 O         142.2860  140.8584  159.1617 O.2     1  UNL1       -0.2750
     16 H         138.8137  140.9262  159.4581 H       1  UNL1        0.1497
     17 C         139.9412  138.1920  158.3369 C.3     1  UNL1        0.0262
     18 C         139.9155  139.0628  159.5579 C.3     1  UNL1        0.0941
     19 C         140.0854  138.4530  160.9178 C.ar    1  UNL1       -0.0045
     20 C         141.4522  138.0702  161.4027 C.ar    1  UNL1       -0.0027
     21 C         141.6221  137.4604  162.7625 C.ar    1  UNL1       -0.0003
     22 C         140.4252  137.2332  163.6375 C.ar    1  UNL1       -0.0000
     23 C         139.0582  137.6159  163.1526 C.ar    1  UNL1       -0.0003
     24 C         138.8883  138.2258  161.7927 C.ar    1  UNL1       -0.0027
     25 N         140.3677  143.1175  161.6504 N.am    1  UNL1       -0.3006
     26 C         139.1356  142.3651  162.0577 C.2     1  UNL1        0.2669
     27 O         137.9767  142.2555  161.1116 O.2     1  UNL1       -0.2684
     28 H         141.1283  143.1895  162.2713 H       1  UNL1        0.1497
     29 C         139.0623  141.7225  163.4110 C.ar    1  UNL1        0.1761
     30 C         140.2210  141.4622  164.3273 C.ar    1  UNL1        0.0673
     31 C         139.6924  140.8061  165.5683 C.ar    1  UNL1        0.1792
     32 O         138.2068  140.6609  165.4190 O.2     1  UNL1       -0.3532
     33 N         137.8175  141.2272  164.0857 N.ar    1  UNL1       -0.0723
     34 C         140.5063  140.3715  166.7510 C.ar    1  UNL1        0.0648
     35 C         139.9560  140.5263  168.1378 C.ar    1  UNL1        0.0077
     36 C         140.7698  140.0917  169.3205 C.ar    1  UNL1        0.0299
     37 C         142.1341  139.5023  169.1163 C.ar    1  UNL1        0.1424
     38 F         142.9480  139.0677  170.2990 F       1  UNL1       -0.2041
     39 C         142.6843  139.3476  167.7295 C.ar    1  UNL1        0.0593
     40 C         141.8704  139.7821  166.5468 C.ar    1  UNL1        0.1453
     41 F         142.4207  139.6274  165.1600 F       1  UNL1       -0.2040
@<TRIPOS>BOND
     1    18    17    1
     2    18    13    1
     3    13    14   am
     4    14    15    2
     5     1    14    1
     6     1     2    1
     7     2     3    1
     8     3     7    1
     9     7     8    1
    10     8     9    1
    11     9    10    1
    12    10    11    1
    13    11    12    1
    14     3     4    1
    15     4     5    1
    16     5     6    1
    17     6    25    1
    18    25    26   am
    19    26    27    2
    20    26    29    1
    21    29    30   ar
    22    30    31   ar
    23    31    34    1
    24    34    35   ar
    25    35    36   ar
    26    36    37   ar
    27    37    38    1
    28    37    39   ar
    29    39    40   ar
    30    40    41    1
    31    31    32   ar
    32    32    33   ar
    33    18    19    1
    34    19    20   ar
    35    20    21   ar
    36    21    22   ar
    37    22    23   ar
    38    23    24   ar
    39     6     1    1
    40    33    29   ar
    41    24    19   ar
    42    12     7    1
    43    40    34   ar
    44    13    16    1
    45    25    28    1
