@<TRIPOS>MOLECULE
*****
 29 32 0 0 0
SMALL
GASTEIGER

@<TRIPOS>ATOM
      1 O         142.8373  138.5926  170.2010 O.2     1  UNL1       -0.2262
      2 C         142.6634  139.8392  169.3851 C.2     1  UNL1        0.4051
      3 N         142.8505  139.7942  167.8975 N.am    1  UNL1       -0.2460
      4 C         143.2102  138.5821  167.0904 C.3     1  UNL1        0.0971
      5 C         143.2927  138.9921  165.6498 C.3     1  UNL1        0.0276
      6 C         142.9839  140.4576  165.5666 C.3     1  UNL1        0.0276
      7 C         142.7106  140.9533  166.9558 C.3     1  UNL1        0.0971
      8 C         143.3002  139.6858  164.3200 C.3     1  UNL1        0.0455
      9 C         143.4873  139.6408  162.8324 C.ar    1  UNL1        0.0802
     10 C         143.8393  138.4270  162.0243 C.ar    1  UNL1        0.0371
     11 C         143.9247  138.8377  160.5842 C.ar    1  UNL1        0.1016
     12 N         143.6254  140.3052  160.5021 N.ar    1  UNL1       -0.2285
     13 N         143.3551  140.8015  161.8915 N.ar    1  UNL1       -0.1695
     14 C         143.6008  141.1314  159.2504 C.ar    1  UNL1        0.0830
     15 C         143.7662  140.4721  157.9132 C.ar    1  UNL1        0.0215
     16 C         143.7416  141.2983  156.6616 C.ar    1  UNL1        0.0312
     17 C         143.5515  142.7838  156.7470 C.ar    1  UNL1        0.1402
     18 F         143.5269  143.6100  155.4953 F       1  UNL1       -0.2042
     19 C         143.3861  143.4431  158.0841 C.ar    1  UNL1        0.0312
     20 C         143.4107  142.6168  159.3358 C.ar    1  UNL1        0.0215
     21 O         142.3025  141.1309  170.0569 O.3     1  UNL1       -0.4267
     22 C         140.8741  141.5879  170.0854 C.3     1  UNL1        0.2933
     23 C         140.5523  143.0498  169.9896 C.3     1  UNL1        0.4368
     24 F         140.2305  144.5117  169.8938 F       1  UNL1       -0.1663
     25 F         141.8828  143.3003  169.3439 F       1  UNL1       -0.1663
     26 F         139.2218  142.7991  170.6353 F       1  UNL1       -0.1663
     27 C         139.7675  140.5828  170.2099 C.3     1  UNL1        0.1901
     28 O         139.8462  139.5057  171.2509 O.3     1  UNL1       -0.3783
     29 H         140.5838  138.9104  171.0450 H       1  UNL1        0.2106
@<TRIPOS>BOND
     1     1     2    2
     2     2    21    1
     3    21    22    1
     4    22    27    1
     5    27    28    1
     6    22    23    1
     7    23    24    1
     8    23    25    1
     9    23    26    1
    10     2     3   am
    11     3     4    1
    12     5     4    1
    13     5     6    1
    14     6     7    1
    15     6     8    1
    16     8     9    1
    17     9    10   ar
    18    10    11   ar
    19    11    12   ar
    20    12    14    1
    21    14    15   ar
    22    15    16   ar
    23    16    17   ar
    24    17    18    1
    25    17    19   ar
    26    19    20   ar
    27    12    13   ar
    28     7     3    1
    29    13     9   ar
    30     8     5    1
    31    20    14   ar
    32    28    29    1
@<TRIPOS>MOLECULE
*****
 29 32 0 0 0
SMALL
GASTEIGER

@<TRIPOS>ATOM
      1 O         138.7658  139.9231  170.6040 O.2     1  UNL1       -0.2262
      2 C         139.9237  140.1961  169.6905 C.2     1  UNL1        0.4051
      3 N         139.7834  139.9716  168.2140 N.am    1  UNL1       -0.2460
      4 C         138.5537  139.4798  167.5099 C.3     1  UNL1        0.0971
      5 C         138.8585  139.4037  166.0432 C.3     1  UNL1        0.0276
      6 C         140.2766  139.8485  165.8408 C.3     1  UNL1        0.0276
      7 C         140.8483  140.1995  167.1824 C.3     1  UNL1        0.0971
      8 C         139.4460  139.4317  164.6634 C.3     1  UNL1        0.0455
      9 C         139.3057  139.2072  163.1869 C.ar    1  UNL1        0.0802
     10 C         138.0153  139.1158  162.4277 C.ar    1  UNL1        0.0371
     11 C         138.3433  138.8868  160.9820 C.ar    1  UNL1        0.1016
     12 N         139.8364  138.8367  160.8477 N.ar    1  UNL1       -0.2285
     13 N         140.4312  139.0347  162.2104 N.ar    1  UNL1       -0.1695
     14 C         140.6006  138.6256  159.5743 C.ar    1  UNL1        0.0830
     15 C         142.0994  138.6856  159.5803 C.ar    1  UNL1        0.0215
     16 C         142.8634  138.4745  158.3070 C.ar    1  UNL1        0.0312
     17 C         142.1288  138.2035  157.0275 C.ar    1  UNL1        0.1402
     18 F         142.8929  137.9924  155.7541 F       1  UNL1       -0.2042
     19 C         140.6301  138.1435  157.0215 C.ar    1  UNL1        0.0312
     20 C         139.8659  138.3546  158.2950 C.ar    1  UNL1        0.0215
     21 O         141.2220  140.6935  170.2535 O.3     1  UNL1       -0.4267
     22 C         141.6876  142.0862  169.9476 C.3     1  UNL1        0.2933
     23 C         143.1551  142.3923  169.8966 C.3     1  UNL1        0.4368
     24 F         144.6226  142.6983  169.8456 F       1  UNL1       -0.1663
     25 F         143.4023  141.0901  169.1944 F       1  UNL1       -0.1663
     26 F         142.9079  143.6945  170.5988 F       1  UNL1       -0.1663
     27 C         140.6855  143.1730  169.6926 C.3     1  UNL1        0.1901
     28 O         139.7139  143.5642  170.7664 O.3     1  UNL1       -0.3783
     29 H         139.1107  142.8250  170.9416 H       1  UNL1        0.2106
@<TRIPOS>BOND
     1     1     2    2
     2     2    21    1
     3    21    22    1
     4    22    27    1
     5    27    28    1
     6    22    23    1
     7    23    24    1
     8    23    25    1
     9    23    26    1
    10     2     3   am
    11     3     4    1
    12     5     4    1
    13     5     6    1
    14     6     7    1
    15     6     8    1
    16     8     9    1
    17     9    10   ar
    18    10    11   ar
    19    11    12   ar
    20    12    14    1
    21    14    15   ar
    22    15    16   ar
    23    16    17   ar
    24    17    18    1
    25    17    19   ar
    26    19    20   ar
    27    12    13   ar
    28     7     3    1
    29    13     9   ar
    30     8     5    1
    31    20    14   ar
    32    28    29    1
@<TRIPOS>MOLECULE
*****
 29 32 0 0 0
SMALL
GASTEIGER

@<TRIPOS>ATOM
      1 O         138.7402  139.9239  170.6772 O.2     1  UNL1       -0.2262
      2 C         139.8982  140.2133  169.7688 C.2     1  UNL1        0.4051
      3 N         139.7686  139.9842  168.2921 N.am    1  UNL1       -0.2460
      4 C         138.5501  139.4720  167.5829 C.3     1  UNL1        0.0971
      5 C         138.8632  139.3982  166.1178 C.3     1  UNL1        0.0276
      6 C         140.2752  139.8648  165.9214 C.3     1  UNL1        0.0276
      7 C         140.8347  140.2269  167.2652 C.3     1  UNL1        0.0971
      8 C         139.4569  139.4330  164.7408 C.3     1  UNL1        0.0455
      9 C         139.3274  139.2039  163.2641 C.ar    1  UNL1        0.0802
     10 C         139.3461  137.8724  162.5734 C.ar    1  UNL1        0.0371
     11 C         139.1866  138.1116  161.1012 C.ar    1  UNL1        0.1016
     12 N         139.0693  139.5908  160.8820 N.ar    1  UNL1       -0.2285
     13 N         139.1563  140.2658  162.2186 N.ar    1  UNL1       -0.1695
     14 C         138.8955  140.2749  159.5584 C.ar    1  UNL1        0.0830
     15 C         138.5279  141.7283  159.5079 C.ar    1  UNL1        0.0215
     16 C         138.3541  142.4123  158.1843 C.ar    1  UNL1        0.0312
     17 C         138.5480  141.6430  156.9112 C.ar    1  UNL1        0.1402
     18 F         138.3742  142.3271  155.5877 F       1  UNL1       -0.2042
     19 C         138.9155  140.1897  156.9617 C.ar    1  UNL1        0.0312
     20 C         139.0893  139.5056  158.2854 C.ar    1  UNL1        0.0215
     21 O         141.1858  140.7320  170.3371 O.3     1  UNL1       -0.4267
     22 C         141.6628  142.1085  169.9798 C.3     1  UNL1        0.2933
     23 C         143.1326  142.4029  169.9275 C.3     1  UNL1        0.4368
     24 F         144.6025  142.6973  169.8753 F       1  UNL1       -0.1663
     25 F         143.3685  141.0999  169.2230 F       1  UNL1       -0.1663
     26 F         142.8966  143.7060  170.6321 F       1  UNL1       -0.1663
     27 C         140.6698  143.1907  169.6748 C.3     1  UNL1        0.1901
     28 O         139.7234  143.6618  170.7389 O.3     1  UNL1       -0.3783
     29 H         139.1144  142.9434  170.9711 H       1  UNL1        0.2106
@<TRIPOS>BOND
     1     1     2    2
     2     2    21    1
     3    21    22    1
     4    22    27    1
     5    27    28    1
     6    22    23    1
     7    23    24    1
     8    23    25    1
     9    23    26    1
    10     2     3   am
    11     3     4    1
    12     5     4    1
    13     5     6    1
    14     6     7    1
    15     6     8    1
    16     8     9    1
    17     9    10   ar
    18    10    11   ar
    19    11    12   ar
    20    12    14    1
    21    14    15   ar
    22    15    16   ar
    23    16    17   ar
    24    17    18    1
    25    17    19   ar
    26    19    20   ar
    27    12    13   ar
    28     7     3    1
    29    13     9   ar
    30     8     5    1
    31    20    14   ar
    32    28    29    1
@<TRIPOS>MOLECULE
*****
 29 32 0 0 0
SMALL
GASTEIGER

@<TRIPOS>ATOM
      1 O         141.1635  138.3256  157.4591 O.2     1  UNL1       -0.2262
      2 C         142.2534  137.7679  158.3257 C.2     1  UNL1        0.4051
      3 N         142.2707  138.0680  159.7953 N.am    1  UNL1       -0.2460
      4 C         141.2709  138.9057  160.5360 C.3     1  UNL1        0.0971
      5 C         141.6732  138.9386  161.9806 C.3     1  UNL1        0.0276
      6 C         142.9217  138.1212  162.1328 C.3     1  UNL1        0.0276
      7 C         143.2910  137.5832  160.7822 C.3     1  UNL1        0.0971
      8 C         142.3125  138.7899  163.3294 C.3     1  UNL1        0.0455
      9 C         142.3299  139.0900  164.7989 C.ar    1  UNL1        0.0802
     10 C         143.2502  138.4780  165.8130 C.ar    1  UNL1        0.0371
     11 C         142.9191  139.0647  167.1533 C.ar    1  UNL1        0.1016
     12 N         141.7941  140.0392  166.9675 N.ar    1  UNL1       -0.2285
     13 N         141.4299  140.0549  165.5124 N.ar    1  UNL1       -0.1695
     14 C         141.1468  140.8549  168.0472 C.ar    1  UNL1        0.0830
     15 C         141.6122  142.2567  168.3092 C.ar    1  UNL1        0.0215
     16 C         140.9650  143.0723  169.3888 C.ar    1  UNL1        0.0312
     17 C         139.8523  142.4862  170.2066 C.ar    1  UNL1        0.1402
     18 F         139.2050  143.3019  171.2863 F       1  UNL1       -0.2042
     19 C         139.3869  141.0846  169.9446 C.ar    1  UNL1        0.0312
     20 C         140.0342  140.2689  168.8648 C.ar    1  UNL1        0.0215
     21 O         143.3259  136.9099  157.7228 O.3     1  UNL1       -0.4267
     22 C         142.9681  135.6014  157.0826 C.3     1  UNL1        0.2933
     23 C         143.6697  134.3441  157.5032 C.3     1  UNL1        0.4368
     24 F         144.3713  133.0868  157.9238 F       1  UNL1       -0.1663
     25 F         143.4963  134.7288  158.9426 F       1  UNL1       -0.1663
     26 F         143.8431  133.9593  156.0638 F       1  UNL1       -0.1663
     27 C         141.9088  135.5502  156.0218 C.3     1  UNL1        0.1901
     28 O         141.8354  136.6293  154.9825 O.3     1  UNL1       -0.3783
     29 H         141.6010  137.4702  155.4055 H       1  UNL1        0.2106
@<TRIPOS>BOND
     1     1     2    2
     2     2    21    1
     3    21    22    1
     4    22    27    1
     5    27    28    1
     6    22    23    1
     7    23    24    1
     8    23    25    1
     9    23    26    1
    10     2     3   am
    11     3     4    1
    12     5     4    1
    13     5     6    1
    14     6     7    1
    15     6     8    1
    16     8     9    1
    17     9    10   ar
    18    10    11   ar
    19    11    12   ar
    20    12    14    1
    21    14    15   ar
    22    15    16   ar
    23    16    17   ar
    24    17    18    1
    25    17    19   ar
    26    19    20   ar
    27    12    13   ar
    28     7     3    1
    29    13     9   ar
    30     8     5    1
    31    20    14   ar
    32    28    29    1
@<TRIPOS>MOLECULE
*****
 29 32 0 0 0
SMALL
GASTEIGER

@<TRIPOS>ATOM
      1 O         138.8915  139.4335  168.2715 O.2     1  UNL1       -0.2262
      2 C         140.1126  140.2492  167.9656 C.2     1  UNL1        0.4051
      3 N         140.1408  141.1314  166.7528 N.am    1  UNL1       -0.2460
      4 C         139.0299  141.3000  165.7591 C.3     1  UNL1        0.0971
      5 C         139.4874  142.2727  164.7129 C.3     1  UNL1        0.0276
      6 C         140.8812  142.7052  165.0599 C.3     1  UNL1        0.0276
      7 C         141.2850  141.9999  166.3207 C.3     1  UNL1        0.0971
      8 C         140.2087  143.2529  163.8361 C.3     1  UNL1        0.0455
      9 C         140.2370  144.1351  162.6233 C.ar    1  UNL1        0.0802
     10 C         139.6891  145.5285  162.5336 C.ar    1  UNL1        0.0371
     11 C         139.9315  146.0334  161.1421 C.ar    1  UNL1        0.1016
     12 N         140.6293  144.9519  160.3717 N.ar    1  UNL1       -0.2285
     13 N         140.8181  143.7787  161.2871 N.ar    1  UNL1       -0.1695
     14 C         141.0624  145.0299  158.9377 C.ar    1  UNL1        0.0830
     15 C         142.2135  144.1977  158.4554 C.ar    1  UNL1        0.0215
     16 C         142.6464  144.2758  157.0215 C.ar    1  UNL1        0.0312
     17 C         141.9283  145.1860  156.0696 C.ar    1  UNL1        0.1402
     18 F         142.3613  145.2640  154.6356 F       1  UNL1       -0.2042
     19 C         140.7773  146.0181  156.5518 C.ar    1  UNL1        0.0312
     20 C         140.3443  145.9400  157.9859 C.ar    1  UNL1        0.0215
     21 O         141.3054  140.1827  168.8726 O.3     1  UNL1       -0.4267
     22 C         141.6014  141.3182  169.8069 C.3     1  UNL1        0.2933
     23 C         142.9941  141.8670  169.9028 C.3     1  UNL1        0.4368
     24 F         144.3868  142.4158  169.9987 F       1  UNL1       -0.1663
     25 F         142.4911  143.2167  169.4842 F       1  UNL1       -0.1663
     26 F         143.4971  140.5173  170.3215 F       1  UNL1       -0.1663
     27 C         140.5047  141.9049  170.6454 C.3     1  UNL1        0.1901
     28 O         140.7412  142.1861  172.0997 O.3     1  UNL1       -0.3783
     29 H         140.8776  141.3503  172.5726 H       1  UNL1        0.2106
@<TRIPOS>BOND
     1     1     2    2
     2     2    21    1
     3    21    22    1
     4    22    27    1
     5    27    28    1
     6    22    23    1
     7    23    24    1
     8    23    25    1
     9    23    26    1
    10     2     3   am
    11     3     4    1
    12     5     4    1
    13     5     6    1
    14     6     7    1
    15     6     8    1
    16     8     9    1
    17     9    10   ar
    18    10    11   ar
    19    11    12   ar
    20    12    14    1
    21    14    15   ar
    22    15    16   ar
    23    16    17   ar
    24    17    18    1
    25    17    19   ar
    26    19    20   ar
    27    12    13   ar
    28     7     3    1
    29    13     9   ar
    30     8     5    1
    31    20    14   ar
    32    28    29    1
@<TRIPOS>MOLECULE
*****
 29 32 0 0 0
SMALL
GASTEIGER

@<TRIPOS>ATOM
      1 O         142.9747  138.6996  169.3876 O.2     1  UNL1       -0.2262
      2 C         142.6560  139.8792  168.5178 C.2     1  UNL1        0.4051
      3 N         142.7388  139.7547  167.0252 N.am    1  UNL1       -0.2460
      4 C         143.1239  138.5213  166.2634 C.3     1  UNL1        0.0971
      5 C         143.0742  138.8460  164.7998 C.3     1  UNL1        0.0276
      6 C         142.6583  140.2801  164.6571 C.3     1  UNL1        0.0276
      7 C         142.4510  140.8417  166.0324 C.3     1  UNL1        0.0971
      8 C         142.9380  139.4552  163.4359 C.3     1  UNL1        0.0455
      9 C         143.0208  139.3306  161.9434 C.ar    1  UNL1        0.0802
     10 C         144.0350  139.9925  161.0583 C.ar    1  UNL1        0.0371
     11 C         143.7450  139.5932  159.6418 C.ar    1  UNL1        0.1016
     12 N         142.5516  138.6846  159.6514 N.ar    1  UNL1       -0.2285
     13 N         142.1040  138.5223  161.0738 N.ar    1  UNL1       -0.1695
     14 C         141.9171  138.0498  158.4496 C.ar    1  UNL1        0.0830
     15 C         140.4861  138.3469  158.1120 C.ar    1  UNL1        0.0215
     16 C         139.8517  137.7121  156.9102 C.ar    1  UNL1        0.0312
     17 C         140.6482  136.7800  156.0459 C.ar    1  UNL1        0.1402
     18 F         140.0137  136.1451  154.8441 F       1  UNL1       -0.2042
     19 C         142.0791  136.4828  156.3835 C.ar    1  UNL1        0.0312
     20 C         142.7136  137.1177  157.5854 C.ar    1  UNL1        0.0215
     21 O         142.2544  141.1834  169.1404 O.3     1  UNL1       -0.4267
     22 C         140.8359  141.4007  169.5772 C.3     1  UNL1        0.2933
     23 C         139.7450  140.5166  169.0500 C.3     1  UNL1        0.4368
     24 F         138.6541  139.6324  168.5227 F       1  UNL1       -0.1663
     25 F         139.7817  139.7155  170.3176 F       1  UNL1       -0.1663
     26 F         139.7084  141.3177  167.7823 F       1  UNL1       -0.1663
     27 C         140.5085  142.5023  170.5413 C.3     1  UNL1        0.1901
     28 O         140.5496  142.2432  172.0182 O.3     1  UNL1       -0.3783
     29 H         139.8550  141.6087  172.2546 H       1  UNL1        0.2106
@<TRIPOS>BOND
     1     1     2    2
     2     2    21    1
     3    21    22    1
     4    22    27    1
     5    27    28    1
     6    22    23    1
     7    23    24    1
     8    23    25    1
     9    23    26    1
    10     2     3   am
    11     3     4    1
    12     5     4    1
    13     5     6    1
    14     6     7    1
    15     6     8    1
    16     8     9    1
    17     9    10   ar
    18    10    11   ar
    19    11    12   ar
    20    12    14    1
    21    14    15   ar
    22    15    16   ar
    23    16    17   ar
    24    17    18    1
    25    17    19   ar
    26    19    20   ar
    27    12    13   ar
    28     7     3    1
    29    13     9   ar
    30     8     5    1
    31    20    14   ar
    32    28    29    1
@<TRIPOS>MOLECULE
*****
 29 32 0 0 0
SMALL
GASTEIGER

@<TRIPOS>ATOM
      1 O         143.0013  138.8461  169.6585 O.2     1  UNL1       -0.2262
      2 C         141.9744  139.4531  168.7491 C.2     1  UNL1        0.4051
      3 N         142.1558  139.3850  167.2617 N.am    1  UNL1       -0.2460
      4 C         143.3065  138.7461  166.5421 C.3     1  UNL1        0.0971
      5 C         143.0803  138.9101  165.0684 C.3     1  UNL1        0.0276
      6 C         141.7898  139.6503  164.8771 C.3     1  UNL1        0.0276
      7 C         141.2184  139.9438  166.2326 C.3     1  UNL1        0.0971
      8 C         142.5922  139.2212  163.6846 C.3     1  UNL1        0.0455
      9 C         142.7736  139.1531  162.1972 C.ar    1  UNL1        0.0802
     10 C         143.8338  139.8592  161.4050 C.ar    1  UNL1        0.0371
     11 C         143.6421  139.5095  159.9590 C.ar    1  UNL1        0.1016
     12 N         142.4635  138.5872  159.8575 N.ar    1  UNL1       -0.2285
     13 N         141.9268  138.3670  161.2407 N.ar    1  UNL1       -0.1695
     14 C         141.9175  137.9900  158.5944 C.ar    1  UNL1        0.0830
     15 C         142.7327  136.9962  157.8212 C.ar    1  UNL1        0.0215
     16 C         142.1866  136.3991  156.5582 C.ar    1  UNL1        0.0312
     17 C         140.8254  136.7957  156.0684 C.ar    1  UNL1        0.1402
     18 F         140.2794  136.1985  154.8054 F       1  UNL1       -0.2042
     19 C         140.0103  137.7895  156.8415 C.ar    1  UNL1        0.0312
     20 C         140.5564  138.3867  158.1046 C.ar    1  UNL1        0.0215
     21 O         140.7660  140.1281  169.3271 O.3     1  UNL1       -0.4267
     22 C         140.8845  141.5027  169.9157 C.3     1  UNL1        0.2933
     23 C         140.4849  142.7016  169.1075 C.3     1  UNL1        0.4368
     24 F         140.0853  143.9004  168.2994 F       1  UNL1       -0.1663
     25 F         139.6636  141.8233  168.2108 F       1  UNL1       -0.1663
     26 F         141.3062  143.5798  170.0043 F       1  UNL1       -0.1663
     27 C         141.4025  141.6785  171.3124 C.3     1  UNL1        0.1901
     28 O         142.3302  140.6580  171.9022 O.3     1  UNL1       -0.3783
     29 H         141.8597  139.8164  172.0083 H       1  UNL1        0.2106
@<TRIPOS>BOND
     1     1     2    2
     2     2    21    1
     3    21    22    1
     4    22    27    1
     5    27    28    1
     6    22    23    1
     7    23    24    1
     8    23    25    1
     9    23    26    1
    10     2     3   am
    11     3     4    1
    12     5     4    1
    13     5     6    1
    14     6     7    1
    15     6     8    1
    16     8     9    1
    17     9    10   ar
    18    10    11   ar
    19    11    12   ar
    20    12    14    1
    21    14    15   ar
    22    15    16   ar
    23    16    17   ar
    24    17    18    1
    25    17    19   ar
    26    19    20   ar
    27    12    13   ar
    28     7     3    1
    29    13     9   ar
    30     8     5    1
    31    20    14   ar
    32    28    29    1
@<TRIPOS>MOLECULE
*****
 29 32 0 0 0
SMALL
GASTEIGER

@<TRIPOS>ATOM
      1 O         142.7426  144.3135  162.3274 O.2     1  UNL1       -0.2262
      2 C         141.6939  143.2418  162.3679 C.2     1  UNL1        0.4051
      3 N         141.7633  142.0879  161.4120 N.am    1  UNL1       -0.2460
      4 C         142.8162  141.8719  160.3657 C.3     1  UNL1        0.0971
      5 C         142.4956  140.5980  159.6415 C.3     1  UNL1        0.0276
      6 C         141.2446  140.0267  160.2403 C.3     1  UNL1        0.0276
      7 C         140.7920  140.9475  161.3345 C.3     1  UNL1        0.0971
      8 C         141.9302  139.3131  159.1131 C.3     1  UNL1        0.0455
      9 C         141.9996  138.1593  158.1571 C.ar    1  UNL1        0.0802
     10 C         141.2174  138.0201  156.8848 C.ar    1  UNL1        0.0371
     11 C         141.5977  136.7168  156.2470 C.ar    1  UNL1        0.1016
     12 N         142.6150  136.0505  157.1251 N.ar    1  UNL1       -0.2285
     13 N         142.8633  136.9419  158.3056 N.ar    1  UNL1       -0.1695
     14 C         143.2691  134.7253  156.8679 C.ar    1  UNL1        0.0830
     15 C         143.1761  134.0939  155.5104 C.ar    1  UNL1        0.0215
     16 C         143.8302  132.7688  155.2533 C.ar    1  UNL1        0.0312
     17 C         144.5773  132.0750  156.3537 C.ar    1  UNL1        0.1402
     18 F         145.2314  130.7499  156.0965 F       1  UNL1       -0.2042
     19 C         144.6703  132.7064  157.7110 C.ar    1  UNL1        0.0312
     20 C         144.0161  134.0316  157.9682 C.ar    1  UNL1        0.0215
     21 O         140.5758  143.3239  163.3644 O.3     1  UNL1       -0.4267
     22 C         139.5064  144.3640  163.2077 C.3     1  UNL1        0.2933
     23 C         138.3537  144.4049  164.1666 C.3     1  UNL1        0.4368
     24 F         137.2010  144.4458  165.1255 F       1  UNL1       -0.1663
     25 F         139.1710  145.2324  165.1138 F       1  UNL1       -0.1663
     26 F         137.5364  143.5773  163.2194 F       1  UNL1       -0.1663
     27 C         139.5897  145.3631  162.0919 C.3     1  UNL1        0.1901
     28 O         140.4792  146.5635  162.2250 O.3     1  UNL1       -0.3783
     29 H         140.1446  147.1372  162.9320 H       1  UNL1        0.2106
@<TRIPOS>BOND
     1     1     2    2
     2     2    21    1
     3    21    22    1
     4    22    27    1
     5    27    28    1
     6    22    23    1
     7    23    24    1
     8    23    25    1
     9    23    26    1
    10     2     3   am
    11     3     4    1
    12     5     4    1
    13     5     6    1
    14     6     7    1
    15     6     8    1
    16     8     9    1
    17     9    10   ar
    18    10    11   ar
    19    11    12   ar
    20    12    14    1
    21    14    15   ar
    22    15    16   ar
    23    16    17   ar
    24    17    18    1
    25    17    19   ar
    26    19    20   ar
    27    12    13   ar
    28     7     3    1
    29    13     9   ar
    30     8     5    1
    31    20    14   ar
    32    28    29    1
@<TRIPOS>MOLECULE
*****
 29 32 0 0 0
SMALL
GASTEIGER

@<TRIPOS>ATOM
      1 O         138.7050  139.4814  168.3835 O.2     1  UNL1       -0.2262
      2 C         139.7341  140.3275  167.6943 C.2     1  UNL1        0.4051
      3 N         139.5898  140.6442  166.2353 N.am    1  UNL1       -0.2460
      4 C         138.4761  140.1879  165.3400 C.3     1  UNL1        0.0971
      5 C         138.7318  140.7345  163.9667 C.3     1  UNL1        0.0276
      6 C         140.0035  141.5287  164.0132 C.3     1  UNL1        0.0276
      7 C         140.5337  141.4728  165.4153 C.3     1  UNL1        0.0971
      8 C         139.2426  141.4059  162.7264 C.3     1  UNL1        0.0455
      9 C         139.0982  141.7226  161.2674 C.ar    1  UNL1        0.0802
     10 C         138.3864  140.8823  160.2490 C.ar    1  UNL1        0.0371
     11 C         138.4886  141.5756  158.9227 C.ar    1  UNL1        0.1016
     12 N         139.2636  142.8444  159.1215 N.ar    1  UNL1       -0.2285
     13 N         139.6403  142.9353  160.5705 N.ar    1  UNL1       -0.1695
     14 C         139.6023  143.8464  158.0579 C.ar    1  UNL1        0.0830
     15 C         140.5029  145.0030  158.3765 C.ar    1  UNL1        0.0215
     16 C         140.8416  146.0049  157.3130 C.ar    1  UNL1        0.0312
     17 C         140.2797  145.8505  155.9307 C.ar    1  UNL1        0.1402
     18 F         140.6185  146.8525  154.8671 F       1  UNL1       -0.2042
     19 C         139.3793  144.6940  155.6120 C.ar    1  UNL1        0.0312
     20 C         139.0405  143.6920  156.6757 C.ar    1  UNL1        0.0215
     21 O         140.9076  140.8569  168.4642 O.3     1  UNL1       -0.4267
     22 C         140.6955  141.5205  169.7925 C.3     1  UNL1        0.2933
     23 C         140.4726  143.0021  169.8636 C.3     1  UNL1        0.4368
     24 F         140.2497  144.4837  169.9348 F       1  UNL1       -0.1663
     25 F         139.2113  142.7750  170.6430 F       1  UNL1       -0.1663
     26 F         141.7340  143.2292  169.0842 F       1  UNL1       -0.1663
     27 C         140.7062  140.7024  171.0499 C.3     1  UNL1        0.1901
     28 O         139.7507  139.5569  171.2075 O.3     1  UNL1       -0.3783
     29 H         138.8425  139.8958  171.2421 H       1  UNL1        0.2106
@<TRIPOS>BOND
     1     1     2    2
     2     2    21    1
     3    21    22    1
     4    22    27    1
     5    27    28    1
     6    22    23    1
     7    23    24    1
     8    23    25    1
     9    23    26    1
    10     2     3   am
    11     3     4    1
    12     5     4    1
    13     5     6    1
    14     6     7    1
    15     6     8    1
    16     8     9    1
    17     9    10   ar
    18    10    11   ar
    19    11    12   ar
    20    12    14    1
    21    14    15   ar
    22    15    16   ar
    23    16    17   ar
    24    17    18    1
    25    17    19   ar
    26    19    20   ar
    27    12    13   ar
    28     7     3    1
    29    13     9   ar
    30     8     5    1
    31    20    14   ar
    32    28    29    1
