@<TRIPOS>MOLECULE
*****
 33 37 0 0 0
SMALL
GASTEIGER

@<TRIPOS>ATOM
      1 N         140.6795  144.5766  163.4869 N.3     1  UNL1       -0.2720
      2 C         141.8825  143.6852  163.3961 C.3     1  UNL1        0.0768
      3 C         142.3563  142.6512  164.3742 C.3     1  UNL1        0.0434
      4 C         141.7440  142.2534  165.6844 C.ar    1  UNL1       -0.0233
      5 C         142.5389  141.1723  166.3549 C.ar    1  UNL1        0.0132
      6 C         142.0966  140.6290  167.6812 C.ar    1  UNL1        0.0845
      7 C         140.8594  141.1667  168.3372 C.ar    1  UNL1        0.1523
      8 C         140.0645  142.2478  167.6667 C.ar    1  UNL1        0.0337
      9 C         140.5068  142.7911  166.3403 C.ar    1  UNL1       -0.0216
     10 C         139.5763  143.8596  165.8479 C.3     1  UNL1        0.0434
     11 C         139.6532  144.6542  164.5780 C.3     1  UNL1        0.0768
     12 O         140.4171  140.6235  169.6635 O.3     1  UNL1       -0.4644
     13 C         141.2120  139.5425  170.3339 C.3     1  UNL1        0.2897
     14 C         142.4492  139.0047  169.6781 C.2     1  UNL1        0.2707
     15 O         143.2440  137.9236  170.3486 O.2     1  UNL1       -0.2707
     16 N         142.8914  139.5480  168.3517 N.am    1  UNL1       -0.2785
     17 H         143.7034  139.1950  167.9212 H       1  UNL1        0.1551
     18 C         140.4760  145.5144  162.3340 C.3     1  UNL1        0.0730
     19 C         141.0679  145.1944  160.9934 C.3     1  UNL1        0.0294
     20 C         140.1743  144.8104  159.8513 C.3     1  UNL1        0.0666
     21 S         139.6771  143.4005  159.7294 S.3     1  UNL1       -0.0756
     22 C         138.5399  141.2100  162.7251 C.ar    1  UNL1        0.2029
     23 N         137.4319  142.2195  162.6670 N.ar    1  UNL1       -0.1250
     24 N         137.7231  143.1629  161.5378 N.ar    1  UNL1       -0.1220
     25 C         139.0110  142.7365  160.8979 C.ar    1  UNL1        0.1933
     26 N         139.5158  141.5296  161.6317 N.ar    1  UNL1       -0.2860
     27 C         140.7754  140.7747  161.3258 C.3     1  UNL1        0.1341
     28 C         138.4163  138.0293  162.0055 C.3     1  UNL1        0.0556
     29 C         138.5954  138.6175  163.3738 C.ar    1  UNL1        0.1001
     30 N         138.7492  137.8470  164.6515 N.ar    1  UNL1       -0.2085
     31 C         138.9010  138.8327  165.7718 C.ar    1  UNL1        0.2849
     32 O         138.8411  140.2125  165.1866 O.2     1  UNL1       -0.4283
     33 C         138.6522  140.0796  163.7045 C.ar    1  UNL1        0.1964
@<TRIPOS>BOND
     1    28    29    1
     2    29    30   ar
     3    30    31   ar
     4    31    32   ar
     5    32    33   ar
     6    33    22    1
     7    22    23   ar
     8    23    24   ar
     9    24    25   ar
    10    25    21    1
    11    21    20    1
    12    20    19    1
    13    19    18    1
    14    18     1    1
    15     1     2    1
    16     2     3    1
    17     3     4    1
    18     4     5   ar
    19     5     6   ar
    20     6     7   ar
    21     7     8   ar
    22     8     9   ar
    23     9    10    1
    24    10    11    1
    25     7    12    1
    26    12    13    1
    27    13    14    1
    28    14    15    2
    29    14    16   am
    30    25    26   ar
    31    26    27    1
    32    33    29   ar
    33    26    22   ar
    34    11     1    1
    35     9     4   ar
    36    16     6    1
    37    16    17    1
@<TRIPOS>MOLECULE
*****
 33 37 0 0 0
SMALL
GASTEIGER

@<TRIPOS>ATOM
      1 N         140.3976  144.7861  162.7341 N.3     1  UNL1       -0.2720
      2 C         139.3178  144.9579  163.7611 C.3     1  UNL1        0.0768
      3 C         139.2593  144.4115  165.1569 C.3     1  UNL1        0.0434
      4 C         140.2658  143.5584  165.8702 C.ar    1  UNL1       -0.0233
      5 C         139.8165  143.2295  167.2631 C.ar    1  UNL1        0.0132
      6 C         140.6810  142.3831  168.1498 C.ar    1  UNL1        0.0845
      7 C         141.9949  141.8657  167.6437 C.ar    1  UNL1        0.1523
      8 C         142.4442  142.1946  166.2508 C.ar    1  UNL1        0.0337
      9 C         141.5797  143.0410  165.3641 C.ar    1  UNL1       -0.0216
     10 C         142.2114  143.2489  164.0196 C.3     1  UNL1        0.0434
     11 C         141.6852  144.0256  162.8492 C.3     1  UNL1        0.0768
     12 O         142.8594  141.0193  168.5304 O.3     1  UNL1       -0.4644
     13 C         142.4101  140.6904  169.9232 C.3     1  UNL1        0.2897
     14 C         141.0963  141.2078  170.4294 C.2     1  UNL1        0.2707
     15 O         140.6471  140.8789  171.8221 O.2     1  UNL1       -0.2707
     16 N         140.2318  142.0542  169.5426 N.am    1  UNL1       -0.2785
     17 H         139.3695  142.3938  169.8747 H       1  UNL1        0.1551
     18 C         140.1578  145.4647  161.4180 C.3     1  UNL1        0.0730
     19 C         140.8492  144.9701  160.1822 C.3     1  UNL1        0.0294
     20 C         140.0912  144.1614  159.1714 C.3     1  UNL1        0.0666
     21 S         139.8480  142.7005  159.4097 S.3     1  UNL1       -0.0756
     22 C         138.5429  141.1156  162.7037 C.ar    1  UNL1        0.2029
     23 N         137.3989  142.0160  162.3420 N.ar    1  UNL1       -0.1250
     24 N         137.7486  142.7192  161.0641 N.ar    1  UNL1       -0.1220
     25 C         139.1087  142.2536  160.6359 C.ar    1  UNL1        0.1933
     26 N         139.5996  141.2626  161.6492 N.ar    1  UNL1       -0.2860
     27 C         140.9161  140.5444  161.6143 C.3     1  UNL1        0.1341
     28 C         138.6513  137.8542  162.6738 C.3     1  UNL1        0.0556
     29 C         138.6670  138.7258  163.8945 C.ar    1  UNL1        0.1001
     30 N         138.7353  138.2512  165.3158 N.ar    1  UNL1       -0.2085
     31 C         138.7277  139.4571  166.2079 C.ar    1  UNL1        0.2849
     32 O         138.6547  140.6769  165.3380 O.2     1  UNL1       -0.4283
     33 C         138.6172  140.2250  163.9082 C.ar    1  UNL1        0.1964
@<TRIPOS>BOND
     1    28    29    1
     2    29    30   ar
     3    30    31   ar
     4    31    32   ar
     5    32    33   ar
     6    33    22    1
     7    22    23   ar
     8    23    24   ar
     9    24    25   ar
    10    25    21    1
    11    21    20    1
    12    20    19    1
    13    19    18    1
    14    18     1    1
    15     1     2    1
    16     2     3    1
    17     3     4    1
    18     4     5   ar
    19     5     6   ar
    20     6     7   ar
    21     7     8   ar
    22     8     9   ar
    23     9    10    1
    24    10    11    1
    25     7    12    1
    26    12    13    1
    27    13    14    1
    28    14    15    2
    29    14    16   am
    30    25    26   ar
    31    26    27    1
    32    33    29   ar
    33    26    22   ar
    34    11     1    1
    35     9     4   ar
    36    16     6    1
    37    16    17    1
@<TRIPOS>MOLECULE
*****
 33 37 0 0 0
SMALL
GASTEIGER

@<TRIPOS>ATOM
      1 N         139.3364  138.4931  162.8830 N.3     1  UNL1       -0.2720
      2 C         138.3844  139.3080  163.7077 C.3     1  UNL1        0.0768
      3 C         138.5924  139.8888  165.0750 C.3     1  UNL1        0.0434
      4 C         139.8035  139.7984  165.9552 C.ar    1  UNL1       -0.0233
      5 C         139.5944  140.5241  167.2512 C.ar    1  UNL1        0.0132
      6 C         140.6877  140.5561  168.2777 C.ar    1  UNL1        0.0845
      7 C         141.9901  139.8625  168.0082 C.ar    1  UNL1        0.1523
      8 C         142.1992  139.1367  166.7122 C.ar    1  UNL1        0.0337
      9 C         141.1059  139.1047  165.6857 C.ar    1  UNL1       -0.0216
     10 C         141.5187  138.3301  164.4693 C.3     1  UNL1        0.0434
     11 C         140.7312  138.0580  163.2220 C.3     1  UNL1        0.0768
     12 O         143.0834  139.8945  169.0347 O.3     1  UNL1       -0.4644
     13 C         142.8743  140.6202  170.3306 C.3     1  UNL1        0.2897
     14 C         141.5720  141.3139  170.6002 C.2     1  UNL1        0.2707
     15 O         141.3630  142.0396  171.8962 O.2     1  UNL1       -0.2707
     16 N         140.4787  141.2818  169.5737 N.am    1  UNL1       -0.2785
     17 H         139.6239  141.7371  169.7505 H       1  UNL1        0.1551
     18 C         138.8258  138.0557  161.5422 C.3     1  UNL1        0.0730
     19 C         139.0635  138.9114  160.3334 C.3     1  UNL1        0.0294
     20 C         138.0294  139.9109  159.9069 C.3     1  UNL1        0.0666
     21 S         138.4457  141.2926  159.4977 S.3     1  UNL1       -0.0756
     22 C         140.5362  143.4423  161.9622 C.ar    1  UNL1        0.2029
     23 N         139.1550  143.9687  162.2181 N.ar    1  UNL1       -0.1250
     24 N         138.2039  143.2275  161.3260 N.ar    1  UNL1       -0.1220
     25 C         138.9972  142.2430  160.5188 C.ar    1  UNL1        0.1933
     26 N         140.4386  142.3758  160.9120 N.ar    1  UNL1       -0.2860
     27 C         141.5817  141.5815  160.3531 C.3     1  UNL1        0.1341
     28 C         141.2304  143.1360  165.1362 C.3     1  UNL1        0.0556
     29 C         142.1132  143.7611  164.0969 C.ar    1  UNL1        0.1001
     30 N         143.4700  144.3550  164.3340 N.ar    1  UNL1       -0.2085
     31 C         143.9894  144.8629  163.0216 C.ar    1  UNL1        0.2849
     32 O         142.9537  144.5828  161.9735 O.2     1  UNL1       -0.4283
     33 C         141.7940  143.9018  162.6379 C.ar    1  UNL1        0.1964
@<TRIPOS>BOND
     1    28    29    1
     2    29    30   ar
     3    30    31   ar
     4    31    32   ar
     5    32    33   ar
     6    33    22    1
     7    22    23   ar
     8    23    24   ar
     9    24    25   ar
    10    25    21    1
    11    21    20    1
    12    20    19    1
    13    19    18    1
    14    18     1    1
    15     1     2    1
    16     2     3    1
    17     3     4    1
    18     4     5   ar
    19     5     6   ar
    20     6     7   ar
    21     7     8   ar
    22     8     9   ar
    23     9    10    1
    24    10    11    1
    25     7    12    1
    26    12    13    1
    27    13    14    1
    28    14    15    2
    29    14    16   am
    30    25    26   ar
    31    26    27    1
    32    33    29   ar
    33    26    22   ar
    34    11     1    1
    35     9     4   ar
    36    16     6    1
    37    16    17    1
@<TRIPOS>MOLECULE
*****
 33 37 0 0 0
SMALL
GASTEIGER

@<TRIPOS>ATOM
      1 N         139.6269  138.3872  162.5675 N.3     1  UNL1       -0.2720
      2 C         138.5321  138.9420  163.4299 C.3     1  UNL1        0.0768
      3 C         138.6087  139.4092  164.8533 C.3     1  UNL1        0.0434
      4 C         139.7988  139.4369  165.7657 C.ar    1  UNL1       -0.0233
      5 C         139.4413  139.9827  167.1164 C.ar    1  UNL1        0.0132
      6 C         140.4913  140.0958  168.1816 C.ar    1  UNL1        0.0845
      7 C         141.8989  139.6632  167.8962 C.ar    1  UNL1        0.1523
      8 C         142.2565  139.1174  166.5455 C.ar    1  UNL1        0.0337
      9 C         141.2065  139.0043  165.4803 C.ar    1  UNL1       -0.0216
     10 C         141.7715  138.4371  164.2118 C.3     1  UNL1        0.0434
     11 C         141.0684  138.1625  162.9155 C.3     1  UNL1        0.0768
     12 O         142.9490  139.7764  168.9613 O.3     1  UNL1       -0.4644
     13 C         142.5914  140.3221  170.3119 C.3     1  UNL1        0.2897
     14 C         141.1838  140.7548  170.5975 C.2     1  UNL1        0.2707
     15 O         140.8263  141.3005  171.9481 O.2     1  UNL1       -0.2707
     16 N         140.1338  140.6416  169.5322 N.am    1  UNL1       -0.2785
     17 H         139.2099  140.9255  169.7196 H       1  UNL1        0.1551
     18 C         139.2270  138.0067  161.1728 C.3     1  UNL1        0.0730
     19 C         138.9113  139.0728  160.1659 C.3     1  UNL1        0.0294
     20 C         139.4503  138.9691  158.7698 C.3     1  UNL1        0.0666
     21 S         140.6617  139.7596  158.3730 S.3     1  UNL1       -0.0756
     22 C         143.6492  139.9459  160.8440 C.ar    1  UNL1        0.2029
     23 N         144.1324  138.9001  159.8832 N.ar    1  UNL1       -0.1250
     24 N         143.0721  138.7031  158.8407 N.ar    1  UNL1       -0.1220
     25 C         141.9336  139.6270  159.1571 C.ar    1  UNL1        0.1933
     26 N         142.2903  140.3951  160.3951 N.ar    1  UNL1       -0.2860
     27 C         141.4376  141.4307  161.0665 C.3     1  UNL1        0.1341
     28 C         144.8321  142.9625  161.2320 C.3     1  UNL1        0.0556
     29 C         144.9378  141.8399  162.2213 C.ar    1  UNL1        0.1001
     30 N         145.6059  141.9068  163.5626 N.ar    1  UNL1       -0.2085
     31 C         145.4750  140.5616  164.2132 C.ar    1  UNL1        0.2849
     32 O         144.7261  139.6633  163.2740 O.2     1  UNL1       -0.4283
     33 C         144.3941  140.4533  162.0429 C.ar    1  UNL1        0.1964
@<TRIPOS>BOND
     1    28    29    1
     2    29    30   ar
     3    30    31   ar
     4    31    32   ar
     5    32    33   ar
     6    33    22    1
     7    22    23   ar
     8    23    24   ar
     9    24    25   ar
    10    25    21    1
    11    21    20    1
    12    20    19    1
    13    19    18    1
    14    18     1    1
    15     1     2    1
    16     2     3    1
    17     3     4    1
    18     4     5   ar
    19     5     6   ar
    20     6     7   ar
    21     7     8   ar
    22     8     9   ar
    23     9    10    1
    24    10    11    1
    25     7    12    1
    26    12    13    1
    27    13    14    1
    28    14    15    2
    29    14    16   am
    30    25    26   ar
    31    26    27    1
    32    33    29   ar
    33    26    22   ar
    34    11     1    1
    35     9     4   ar
    36    16     6    1
    37    16    17    1
@<TRIPOS>MOLECULE
*****
 33 37 0 0 0
SMALL
GASTEIGER

@<TRIPOS>ATOM
      1 N         138.4777  141.3096  162.7306 N.3     1  UNL1       -0.2720
      2 C         139.1698  142.5345  163.2511 C.3     1  UNL1        0.0768
      3 C         139.7061  142.7915  164.6283 C.3     1  UNL1        0.0434
      4 C         139.6826  141.8874  165.8248 C.ar    1  UNL1       -0.0233
      5 C         140.3299  142.5344  167.0133 C.ar    1  UNL1        0.0132
      6 C         140.4117  141.7969  168.3169 C.ar    1  UNL1        0.0845
      7 C         139.8462  140.4123  168.4321 C.ar    1  UNL1        0.1523
      8 C         139.1989  139.7653  167.2436 C.ar    1  UNL1        0.0337
      9 C         139.1171  140.5029  165.9400 C.ar    1  UNL1       -0.0216
     10 C         138.4354  139.6805  164.8869 C.3     1  UNL1        0.0434
     11 C         138.1509  140.0396  163.4586 C.3     1  UNL1        0.0768
     12 O         139.9280  139.6747  169.7356 O.3     1  UNL1       -0.4644
     13 C         140.5753  140.3217  170.9240 C.3     1  UNL1        0.2897
     14 C         141.1408  141.7063  170.8090 C.2     1  UNL1        0.2707
     15 O         141.7881  142.3532  171.9974 O.2     1  UNL1       -0.2707
     16 N         141.0590  142.4438  169.5053 N.am    1  UNL1       -0.2785
     17 H         141.4301  143.3525  169.4298 H       1  UNL1        0.1551
     18 C         138.0568  141.3620  161.2918 C.3     1  UNL1        0.0730
     19 C         138.6100  142.4224  160.3866 C.3     1  UNL1        0.0294
     20 C         139.4179  142.0349  159.1836 C.3     1  UNL1        0.0666
     21 S         140.9151  141.9951  159.2668 S.3     1  UNL1       -0.0756
     22 C         142.4609  140.9770  162.6784 C.ar    1  UNL1        0.2029
     23 N         142.7924  142.4393  162.6348 N.ar    1  UNL1       -0.1250
     24 N         142.2537  142.9986  161.3515 N.ar    1  UNL1       -0.1220
     25 C         141.5892  141.8820  160.6020 C.ar    1  UNL1        0.1933
     26 N         141.7173  140.6327  161.4221 N.ar    1  UNL1       -0.2860
     27 C         141.1937  139.2768  161.0509 C.3     1  UNL1        0.1341
     28 C         145.4061  140.6172  164.0372 C.3     1  UNL1        0.0556
     29 C         144.1653  139.8607  164.4088 C.ar    1  UNL1        0.1001
     30 N         144.0604  138.8060  165.4702 N.ar    1  UNL1       -0.2085
     31 C         142.6418  138.3196  165.5016 C.ar    1  UNL1        0.2849
     32 O         141.8700  139.0736  164.4596 O.2     1  UNL1       -0.4283
     33 C         142.8115  140.0261  163.7842 C.ar    1  UNL1        0.1964
@<TRIPOS>BOND
     1    28    29    1
     2    29    30   ar
     3    30    31   ar
     4    31    32   ar
     5    32    33   ar
     6    33    22    1
     7    22    23   ar
     8    23    24   ar
     9    24    25   ar
    10    25    21    1
    11    21    20    1
    12    20    19    1
    13    19    18    1
    14    18     1    1
    15     1     2    1
    16     2     3    1
    17     3     4    1
    18     4     5   ar
    19     5     6   ar
    20     6     7   ar
    21     7     8   ar
    22     8     9   ar
    23     9    10    1
    24    10    11    1
    25     7    12    1
    26    12    13    1
    27    13    14    1
    28    14    15    2
    29    14    16   am
    30    25    26   ar
    31    26    27    1
    32    33    29   ar
    33    26    22   ar
    34    11     1    1
    35     9     4   ar
    36    16     6    1
    37    16    17    1
@<TRIPOS>MOLECULE
*****
 33 37 0 0 0
SMALL
GASTEIGER

@<TRIPOS>ATOM
      1 N         139.9816  138.3944  162.6199 N.3     1  UNL1       -0.2720
      2 C         138.8304  138.8688  163.4565 C.3     1  UNL1        0.0768
      3 C         138.8370  139.3173  164.8880 C.3     1  UNL1        0.0434
      4 C         139.9961  139.4021  165.8361 C.ar    1  UNL1       -0.0233
      5 C         139.5668  139.9041  167.1829 C.ar    1  UNL1        0.0132
      6 C         140.5764  140.0634  168.2807 C.ar    1  UNL1        0.0845
      7 C         142.0154  139.7206  168.0319 C.ar    1  UNL1        0.1523
      8 C         142.4447  139.2186  166.6851 C.ar    1  UNL1        0.0337
      9 C         141.4351  139.0594  165.5873 C.ar    1  UNL1       -0.0216
     10 C         142.0702  138.5472  164.3286 C.3     1  UNL1        0.0434
     11 C         141.4233  138.2512  163.0080 C.3     1  UNL1        0.0768
     12 O         143.0251  139.8799  169.1297 O.3     1  UNL1       -0.4644
     13 C         142.5958  140.3819  170.4764 C.3     1  UNL1        0.2897
     14 C         141.1568  140.7246  170.7253 C.2     1  UNL1        0.2707
     15 O         140.7276  141.2266  172.0721 O.2     1  UNL1       -0.2707
     16 N         140.1472  140.5653  169.6274 N.am    1  UNL1       -0.2785
     17 H         139.2028  140.7903  169.7908 H       1  UNL1        0.1551
     18 C         139.6464  138.0126  161.2085 C.3     1  UNL1        0.0730
     19 C         140.1187  138.8654  160.0686 C.3     1  UNL1        0.0294
     20 C         141.2319  138.3864  159.1845 C.3     1  UNL1        0.0666
     21 S         142.4525  139.2359  158.9886 S.3     1  UNL1       -0.0756
     22 C         143.4621  141.6970  161.8151 C.ar    1  UNL1        0.2029
     23 N         144.4251  140.5717  162.0529 N.ar    1  UNL1       -0.1250
     24 N         144.1641  139.5128  161.0230 N.ar    1  UNL1       -0.1220
     25 C         143.0398  139.9837  160.1488 C.ar    1  UNL1        0.1933
     26 N         142.6060  141.3335  160.6383 N.ar    1  UNL1       -0.2860
     27 C         141.5087  142.1727  160.0537 C.3     1  UNL1        0.1341
     28 C         141.1265  142.4429  163.9688 C.3     1  UNL1        0.0556
     29 C         142.2977  143.3062  163.6039 C.ar    1  UNL1        0.1001
     30 N         142.6009  144.6639  164.1648 N.ar    1  UNL1       -0.2085
     31 C         143.8619  145.1601  163.5216 C.ar    1  UNL1        0.2849
     32 O         144.3380  144.1091  162.5631 O.2     1  UNL1       -0.4283
     33 C         143.3713  142.9633  162.6139 C.ar    1  UNL1        0.1964
@<TRIPOS>BOND
     1    28    29    1
     2    29    30   ar
     3    30    31   ar
     4    31    32   ar
     5    32    33   ar
     6    33    22    1
     7    22    23   ar
     8    23    24   ar
     9    24    25   ar
    10    25    21    1
    11    21    20    1
    12    20    19    1
    13    19    18    1
    14    18     1    1
    15     1     2    1
    16     2     3    1
    17     3     4    1
    18     4     5   ar
    19     5     6   ar
    20     6     7   ar
    21     7     8   ar
    22     8     9   ar
    23     9    10    1
    24    10    11    1
    25     7    12    1
    26    12    13    1
    27    13    14    1
    28    14    15    2
    29    14    16   am
    30    25    26   ar
    31    26    27    1
    32    33    29   ar
    33    26    22   ar
    34    11     1    1
    35     9     4   ar
    36    16     6    1
    37    16    17    1
@<TRIPOS>MOLECULE
*****
 33 37 0 0 0
SMALL
GASTEIGER

@<TRIPOS>ATOM
      1 N         139.9855  138.1906  163.0238 N.3     1  UNL1       -0.2720
      2 C         138.8583  138.8499  163.7620 C.3     1  UNL1        0.0768
      3 C         138.8657  139.4519  165.1360 C.3     1  UNL1        0.0434
      4 C         140.0019  139.5431  166.1109 C.ar    1  UNL1       -0.0233
      5 C         139.5823  140.2254  167.3792 C.ar    1  UNL1        0.0132
      6 C         140.5721  140.4196  168.4893 C.ar    1  UNL1        0.0845
      7 C         141.9817  139.9314  168.3313 C.ar    1  UNL1        0.1523
      8 C         142.4013  139.2491  167.0630 C.ar    1  UNL1        0.0337
      9 C         141.4114  139.0550  165.9529 C.ar    1  UNL1       -0.0216
     10 C         142.0329  138.3550  164.7807 C.3     1  UNL1        0.0434
     11 C         141.3982  137.9703  163.4772 C.3     1  UNL1        0.0768
     12 O         142.9715  140.1256  169.4414 O.3     1  UNL1       -0.4644
     13 C         142.5519  140.8078  170.7096 C.3     1  UNL1        0.2897
     14 C         141.1424  141.2960  170.8677 C.2     1  UNL1        0.2707
     15 O         140.7228  141.9783  172.1359 O.2     1  UNL1       -0.2707
     16 N         140.1525  141.1018  169.7575 N.am    1  UNL1       -0.2785
     17 H         139.2274  141.4222  169.8612 H       1  UNL1        0.1551
     18 C         139.6562  137.6846  161.6506 C.3     1  UNL1        0.0730
     19 C         139.4381  138.6535  160.5266 C.3     1  UNL1        0.0294
     20 C         140.5969  139.0983  159.6843 C.3     1  UNL1        0.0666
     21 S         140.8383  140.5605  159.4530 S.3     1  UNL1       -0.0756
     22 C         139.0484  143.0387  161.8448 C.ar    1  UNL1        0.2029
     23 N         138.2851  143.2611  160.5727 N.ar    1  UNL1       -0.1250
     24 N         138.8628  142.3599  159.5220 N.ar    1  UNL1       -0.1220
     25 C         139.9830  141.5804  160.1446 C.ar    1  UNL1        0.1933
     26 N         140.0977  142.0000  161.5801 N.ar    1  UNL1       -0.2860
     27 C         141.0879  141.4733  162.5762 C.3     1  UNL1        0.1341
     28 C         141.0789  145.1291  163.3135 C.3     1  UNL1        0.0556
     29 C         139.7383  144.6939  163.8270 C.ar    1  UNL1        0.1001
     30 N         139.0958  145.1432  165.1057 N.ar    1  UNL1       -0.2085
     31 C         137.7654  144.4600  165.2209 C.ar    1  UNL1        0.2849
     32 O         137.5857  143.5885  164.0134 O.2     1  UNL1       -0.4283
     33 C         138.8050  143.7330  163.1518 C.ar    1  UNL1        0.1964
@<TRIPOS>BOND
     1    28    29    1
     2    29    30   ar
     3    30    31   ar
     4    31    32   ar
     5    32    33   ar
     6    33    22    1
     7    22    23   ar
     8    23    24   ar
     9    24    25   ar
    10    25    21    1
    11    21    20    1
    12    20    19    1
    13    19    18    1
    14    18     1    1
    15     1     2    1
    16     2     3    1
    17     3     4    1
    18     4     5   ar
    19     5     6   ar
    20     6     7   ar
    21     7     8   ar
    22     8     9   ar
    23     9    10    1
    24    10    11    1
    25     7    12    1
    26    12    13    1
    27    13    14    1
    28    14    15    2
    29    14    16   am
    30    25    26   ar
    31    26    27    1
    32    33    29   ar
    33    26    22   ar
    34    11     1    1
    35     9     4   ar
    36    16     6    1
    37    16    17    1
@<TRIPOS>MOLECULE
*****
 33 37 0 0 0
SMALL
GASTEIGER

@<TRIPOS>ATOM
      1 N         142.9736  140.6915  168.0691 N.3     1  UNL1       -0.2720
      2 C         142.9220  139.4201  167.2745 C.3     1  UNL1        0.0768
      3 C         143.1131  139.2312  165.7987 C.3     1  UNL1        0.0434
      4 C         143.4031  140.2668  164.7532 C.ar    1  UNL1       -0.0233
      5 C         143.5214  139.6513  163.3903 C.ar    1  UNL1        0.0132
      6 C         143.8101  140.5163  162.1993 C.ar    1  UNL1        0.0845
      7 C         143.9806  141.9966  162.3710 C.ar    1  UNL1        0.1523
      8 C         143.8623  142.6121  163.7339 C.ar    1  UNL1        0.0337
      9 C         143.5736  141.7471  164.9249 C.ar    1  UNL1       -0.0216
     10 C         143.4962  142.5575  166.1848 C.3     1  UNL1        0.0434
     11 C         143.2292  142.0876  167.5841 C.3     1  UNL1        0.0768
     12 O         144.2693  142.8616  161.1800 O.3     1  UNL1       -0.4644
     13 C         144.3876  142.2461  159.8173 C.3     1  UNL1        0.2897
     14 C         144.2171  140.7658  159.6454 C.2     1  UNL1        0.2707
     15 O         144.3353  140.1504  158.2826 O.2     1  UNL1       -0.2707
     16 N         143.9283  139.9009  160.8365 N.am    1  UNL1       -0.2785
     17 H         143.8164  138.9293  160.7238 H       1  UNL1        0.1551
     18 C         142.7386  140.5473  169.5435 C.3     1  UNL1        0.0730
     19 C         141.7373  139.5518  170.0496 C.3     1  UNL1        0.0294
     20 C         140.2972  139.9449  170.1966 C.3     1  UNL1        0.0666
     21 S         139.6159  140.7180  169.1066 S.3     1  UNL1       -0.0756
     22 C         138.3598  139.3134  165.7132 C.ar    1  UNL1        0.2029
     23 N         137.6185  138.4393  166.6811 N.ar    1  UNL1       -0.1250
     24 N         137.9988  138.8592  168.0699 N.ar    1  UNL1       -0.1220
     25 C         138.9752  139.9926  167.9606 C.ar    1  UNL1        0.1933
     26 N         139.1982  140.2733  166.5041 N.ar    1  UNL1       -0.2860
     27 C         140.1013  141.3288  165.9378 C.3     1  UNL1        0.1341
     28 C         137.3423  141.6966  163.7296 C.3     1  UNL1        0.0556
     29 C         137.8095  140.3357  163.3055 C.ar    1  UNL1        0.1001
     30 N         137.8909  139.8313  161.8953 N.ar    1  UNL1       -0.2085
     31 C         138.4090  138.4242  161.9354 C.ar    1  UNL1        0.2849
     32 O         138.6477  138.0589  163.3705 O.2     1  UNL1       -0.4283
     33 C         138.2772  139.2402  164.2174 C.ar    1  UNL1        0.1964
@<TRIPOS>BOND
     1    28    29    1
     2    29    30   ar
     3    30    31   ar
     4    31    32   ar
     5    32    33   ar
     6    33    22    1
     7    22    23   ar
     8    23    24   ar
     9    24    25   ar
    10    25    21    1
    11    21    20    1
    12    20    19    1
    13    19    18    1
    14    18     1    1
    15     1     2    1
    16     2     3    1
    17     3     4    1
    18     4     5   ar
    19     5     6   ar
    20     6     7   ar
    21     7     8   ar
    22     8     9   ar
    23     9    10    1
    24    10    11    1
    25     7    12    1
    26    12    13    1
    27    13    14    1
    28    14    15    2
    29    14    16   am
    30    25    26   ar
    31    26    27    1
    32    33    29   ar
    33    26    22   ar
    34    11     1    1
    35     9     4   ar
    36    16     6    1
    37    16    17    1
@<TRIPOS>MOLECULE
*****
 33 37 0 0 0
SMALL
GASTEIGER

@<TRIPOS>ATOM
      1 N         143.1124  138.5174  162.7940 N.3     1  UNL1       -0.2720
      2 C         144.0745  139.0417  163.8186 C.3     1  UNL1        0.0768
      3 C         143.7941  139.4865  165.2235 C.3     1  UNL1        0.0434
      4 C         142.4826  139.5170  165.9506 C.ar    1  UNL1       -0.0233
      5 C         142.6434  140.0351  167.3491 C.ar    1  UNL1        0.0132
      6 C         141.4489  140.1465  168.2496 C.ar    1  UNL1        0.0845
      7 C         140.0937  139.7397  167.7517 C.ar    1  UNL1        0.1523
      8 C         139.9330  139.2215  166.3532 C.ar    1  UNL1        0.0337
      9 C         141.1274  139.1102  165.4527 C.ar    1  UNL1       -0.0216
     10 C         140.7491  138.5724  164.1045 C.3     1  UNL1        0.0434
     11 C         141.6326  138.3086  162.9213 C.3     1  UNL1        0.0768
     12 O         138.8992  139.8510  168.6521 O.3     1  UNL1       -0.4644
     13 C         139.0600  140.3691  170.0505 C.3     1  UNL1        0.2897
     14 C         140.4152  140.7760  170.5486 C.2     1  UNL1        0.2707
     15 O         140.5758  141.2941  171.9470 O.2     1  UNL1       -0.2707
     16 N         141.6096  140.6646  169.6480 N.am    1  UNL1       -0.2785
     17 H         142.4990  140.9316  169.9749 H       1  UNL1        0.1551
     18 C         143.7093  138.1540  161.4667 C.3     1  UNL1        0.0730
     19 C         144.1136  139.2324  160.5057 C.3     1  UNL1        0.0294
     20 C         143.2157  139.5898  159.3584 C.3     1  UNL1        0.0666
     21 S         143.0556  141.0242  158.9500 S.3     1  UNL1       -0.0756
     22 C         141.7468  143.3531  161.7659 C.ar    1  UNL1        0.2029
     23 N         143.0363  144.0298  161.4059 N.ar    1  UNL1       -0.1250
     24 N         143.6834  143.2397  160.3074 N.ar    1  UNL1       -0.1220
     25 C         142.7940  142.0748  159.9883 C.ar    1  UNL1        0.1933
     26 N         141.5972  142.1448  160.8897 N.ar    1  UNL1       -0.2860
     27 C         140.4516  141.1766  160.9112 C.3     1  UNL1        0.1341
     28 C         142.1360  143.0491  164.9917 C.3     1  UNL1        0.0556
     29 C         140.9562  143.6655  164.3001 C.ar    1  UNL1        0.1001
     30 N         139.7483  144.2505  164.9699 N.ar    1  UNL1       -0.2085
     31 C         138.8228  144.7517  163.9011 C.ar    1  UNL1        0.2849
     32 O         139.4588  144.4765  162.5708 O.2     1  UNL1       -0.4283
     33 C         140.7774  143.8052  162.8173 C.ar    1  UNL1        0.1964
@<TRIPOS>BOND
     1    28    29    1
     2    29    30   ar
     3    30    31   ar
     4    31    32   ar
     5    32    33   ar
     6    33    22    1
     7    22    23   ar
     8    23    24   ar
     9    24    25   ar
    10    25    21    1
    11    21    20    1
    12    20    19    1
    13    19    18    1
    14    18     1    1
    15     1     2    1
    16     2     3    1
    17     3     4    1
    18     4     5   ar
    19     5     6   ar
    20     6     7   ar
    21     7     8   ar
    22     8     9   ar
    23     9    10    1
    24    10    11    1
    25     7    12    1
    26    12    13    1
    27    13    14    1
    28    14    15    2
    29    14    16   am
    30    25    26   ar
    31    26    27    1
    32    33    29   ar
    33    26    22   ar
    34    11     1    1
    35     9     4   ar
    36    16     6    1
    37    16    17    1
