@<TRIPOS>MOLECULE
*****
 35 40 0 0 0
SMALL
GASTEIGER

@<TRIPOS>ATOM
      1 C         138.3408  140.1609  164.8194 C.ar    1  UNL1       -0.0065
      2 C         138.2214  141.6536  164.7327 C.ar    1  UNL1       -0.0032
      3 C         138.2362  142.3307  163.3943 C.ar    1  UNL1       -0.0026
      4 C         138.3704  141.5150  162.1426 C.ar    1  UNL1        0.0019
      5 C         138.4898  140.0223  162.2293 C.ar    1  UNL1       -0.0200
      6 C         138.4750  139.3453  163.5677 C.ar    1  UNL1       -0.0071
      7 C         138.6085  139.4850  160.8339 C.3     1  UNL1        0.0519
      8 C         138.5624  140.6457  159.8847 C.2     1  UNL1        0.0074
      9 C         138.6073  141.0308  158.4357 C.2     1  UNL1        0.0976
     10 N         138.4879  142.5235  158.3490 N.2     1  UNL1       -0.1526
     11 N         138.3692  143.0608  159.7445 N.2     1  UNL1       -0.1678
     12 C         138.4153  141.9003  160.6935 C.3     1  UNL1        0.1672
     13 C         138.7471  140.0887  157.2769 C.ar    1  UNL1        0.0265
     14 C         138.0501  140.2087  155.9541 C.ar    1  UNL1        0.0376
     15 S         138.4806  139.0553  155.0971 S.2     1  UNL1       -0.0780
     16 C         139.4437  138.2226  155.8902 C.ar    1  UNL1        0.0709
     17 C         139.6083  138.8613  157.2374 C.ar    1  UNL1        0.0168
     18 C         140.1228  136.9709  155.4190 C.1     1  UNL1       -0.0578
     19 C         140.8019  135.7192  154.9477 C.1     1  UNL1       -0.0856
     20 C         141.4810  134.4676  154.4764 C.3     1  UNL1        0.0811
     21 C         141.4939  133.2473  155.3486 C.3     1  UNL1        0.0403
     22 C         142.7585  132.8341  156.0416 C.ar    1  UNL1       -0.0212
     23 C         143.2187  133.5709  157.2644 C.ar    1  UNL1       -0.0042
     24 C         144.4832  133.1577  157.9574 C.ar    1  UNL1       -0.0003
     25 C         145.2874  132.0077  157.4277 C.ar    1  UNL1       -0.0000
     26 C         144.8271  131.2709  156.2049 C.ar    1  UNL1       -0.0003
     27 C         143.5626  131.6841  155.5119 C.ar    1  UNL1       -0.0042
     28 C         138.3260  139.4838  166.1578 C.3     1  UNL1        0.0992
     29 C         142.8408  140.3573  170.0118 C.3     1  UNL1        0.0897
     30 N         141.7121  140.1389  169.0483 N.3     1  UNL1       -0.2691
     31 C         140.2939  140.1658  169.5360 C.3     1  UNL1        0.0897
     32 C         139.1651  139.9475  168.5725 C.3     1  UNL1        0.0899
     33 N         139.4547  139.7022  167.1213 N.3     1  UNL1       -0.2665
     34 C         140.8730  139.6752  166.6336 C.3     1  UNL1        0.0899
     35 C         142.0017  139.8936  167.5971 C.3     1  UNL1        0.0897
@<TRIPOS>BOND
     1    29    30    1
     2    30    31    1
     3    31    32    1
     4    32    33    1
     5    33    28    1
     6    28     1    1
     7     1     2   ar
     8     2     3   ar
     9     3     4   ar
    10     4     5   ar
    11     5     6   ar
    12     5     7    1
    13     7     8    1
    14     8     9    2
    15     9    13    1
    16    13    14   ar
    17    14    15   ar
    18    15    16   ar
    19    16    18    1
    20    18    19    3
    21    19    20    1
    22    20    21    1
    23    21    22    1
    24    22    23   ar
    25    23    24   ar
    26    24    25   ar
    27    25    26   ar
    28    26    27   ar
    29    16    17   ar
    30     9    10    1
    31    10    11    2
    32    11    12    1
    33    33    34    1
    34    34    35    1
    35    35    30    1
    36     6     1   ar
    37    12     8    1
    38    12     4    1
    39    17    13   ar
    40    27    22   ar
@<TRIPOS>MOLECULE
*****
 35 40 0 0 0
SMALL
GASTEIGER

@<TRIPOS>ATOM
      1 C         142.5716  136.5210  156.0514 C.ar    1  UNL1       -0.0065
      2 C         143.4752  137.1269  155.0187 C.ar    1  UNL1       -0.0032
      3 C         144.1206  138.4566  155.2742 C.ar    1  UNL1       -0.0026
      4 C         143.8623  139.1805  156.5624 C.ar    1  UNL1        0.0019
      5 C         142.9587  138.5746  157.5950 C.ar    1  UNL1       -0.0200
      6 C         142.3134  137.2449  157.3395 C.ar    1  UNL1       -0.0071
      7 C         142.8921  139.5150  158.7617 C.3     1  UNL1        0.0519
      8 C         143.7545  140.7021  158.4501 C.2     1  UNL1        0.0074
      9 C         144.2463  142.0170  158.9786 C.2     1  UNL1        0.0976
     10 N         145.1499  142.6228  157.9459 N.2     1  UNL1       -0.1526
     11 N         145.2165  141.6824  156.7793 N.2     1  UNL1       -0.1678
     12 C         144.3542  140.4954  157.0908 C.3     1  UNL1        0.1672
     13 C         143.8960  142.6201  160.3066 C.ar    1  UNL1        0.0265
     14 C         144.8678  143.0239  161.3755 C.ar    1  UNL1        0.0376
     15 S         144.0848  143.5786  162.5283 S.2     1  UNL1       -0.0780
     16 C         142.6290  143.5176  162.1720 C.ar    1  UNL1        0.0709
     17 C         142.5123  142.9252  160.7989 C.ar    1  UNL1        0.0168
     18 C         141.4899  143.9697  163.0369 C.1     1  UNL1       -0.0578
     19 C         140.3507  144.4217  163.9018 C.1     1  UNL1       -0.0856
     20 C         139.2116  144.8737  164.7667 C.3     1  UNL1        0.0811
     21 C         138.0027  144.0011  164.9313 C.3     1  UNL1        0.0403
     22 C         137.9922  142.6173  164.3525 C.ar    1  UNL1       -0.0212
     23 C         137.5037  142.3939  162.9520 C.ar    1  UNL1       -0.0042
     24 C         137.4931  141.0102  162.3731 C.ar    1  UNL1       -0.0003
     25 C         137.9710  139.8498  163.1948 C.ar    1  UNL1       -0.0000
     26 C         138.4595  140.0732  164.5953 C.ar    1  UNL1       -0.0003
     27 C         138.4701  141.4570  165.1741 C.ar    1  UNL1       -0.0042
     28 C         141.9262  135.1912  155.7959 C.3     1  UNL1        0.0992
     29 C         144.5354  130.1616  157.7695 C.3     1  UNL1        0.0897
     30 N         143.8831  131.4190  157.2761 N.3     1  UNL1       -0.2691
     31 C         144.4299  132.7559  157.6804 C.3     1  UNL1        0.0897
     32 C         143.7776  134.0134  157.1870 C.3     1  UNL1        0.0899
     33 N         142.5785  133.9338  156.2893 N.3     1  UNL1       -0.2665
     34 C         142.0317  132.5968  155.8851 C.3     1  UNL1        0.0899
     35 C         142.6839  131.3394  156.3785 C.3     1  UNL1        0.0897
@<TRIPOS>BOND
     1    29    30    1
     2    30    31    1
     3    31    32    1
     4    32    33    1
     5    33    28    1
     6    28     1    1
     7     1     2   ar
     8     2     3   ar
     9     3     4   ar
    10     4     5   ar
    11     5     6   ar
    12     5     7    1
    13     7     8    1
    14     8     9    2
    15     9    13    1
    16    13    14   ar
    17    14    15   ar
    18    15    16   ar
    19    16    18    1
    20    18    19    3
    21    19    20    1
    22    20    21    1
    23    21    22    1
    24    22    23   ar
    25    23    24   ar
    26    24    25   ar
    27    25    26   ar
    28    26    27   ar
    29    16    17   ar
    30     9    10    1
    31    10    11    2
    32    11    12    1
    33    33    34    1
    34    34    35    1
    35    35    30    1
    36     6     1   ar
    37    12     8    1
    38    12     4    1
    39    17    13   ar
    40    27    22   ar
@<TRIPOS>MOLECULE
*****
 35 40 0 0 0
SMALL
GASTEIGER

@<TRIPOS>ATOM
      1 C         143.6381  139.1109  164.9408 C.ar    1  UNL1       -0.0065
      2 C         144.3547  140.3727  164.5611 C.ar    1  UNL1       -0.0032
      3 C         144.4199  140.7946  163.1232 C.ar    1  UNL1       -0.0026
      4 C         143.7685  139.9546  162.0649 C.ar    1  UNL1        0.0019
      5 C         143.0519  138.6927  162.4445 C.ar    1  UNL1       -0.0200
      6 C         142.9867  138.2708  163.8824 C.ar    1  UNL1       -0.0071
      7 C         142.5086  138.0732  161.1911 C.3     1  UNL1        0.0519
      8 C         142.8894  138.9522  160.0368 C.2     1  UNL1        0.0074
      9 C         142.7889  139.1125  158.5488 C.2     1  UNL1        0.0976
     10 N         143.5055  140.3744  158.1692 N.2     1  UNL1       -0.1526
     11 N         144.0488  140.9939  159.4226 N.2     1  UNL1       -0.1678
     12 C         143.6680  140.1150  160.5768 C.3     1  UNL1        0.1672
     13 C         142.0939  138.1755  157.6060 C.ar    1  UNL1        0.0265
     14 C         140.7237  138.3645  157.0254 C.ar    1  UNL1        0.0376
     15 S         140.4300  137.1908  156.1388 S.2     1  UNL1       -0.0780
     16 C         141.6186  136.2763  156.1714 C.ar    1  UNL1        0.0709
     17 C         142.6469  136.8849  157.0782 C.ar    1  UNL1        0.0168
     18 C         141.7550  134.9808  155.4279 C.1     1  UNL1       -0.0578
     19 C         141.8914  133.6852  154.6843 C.1     1  UNL1       -0.0856
     20 C         142.0278  132.3896  153.9408 C.3     1  UNL1        0.0811
     21 C         143.2701  131.5634  154.0952 C.3     1  UNL1        0.0403
     22 C         143.7624  131.1979  155.4643 C.ar    1  UNL1       -0.0212
     23 C         143.2761  129.9426  156.1258 C.ar    1  UNL1       -0.0042
     24 C         143.7683  129.5771  157.4947 C.ar    1  UNL1       -0.0003
     25 C         144.7469  130.4670  158.2022 C.ar    1  UNL1       -0.0000
     26 C         145.2332  131.7223  157.5406 C.ar    1  UNL1       -0.0003
     27 C         144.7410  132.0878  156.1717 C.ar    1  UNL1       -0.0042
     28 C         143.5729  138.6889  166.3788 C.3     1  UNL1        0.0992
     29 C         139.1059  140.6388  169.8778 C.3     1  UNL1        0.0897
     30 N         140.2227  140.1513  169.0031 N.3     1  UNL1       -0.2691
     31 C         140.0332  140.0764  167.5170 C.3     1  UNL1        0.0897
     32 C         141.1500  139.5889  166.6422 C.3     1  UNL1        0.0899
     33 N         142.4562  139.1764  167.2535 N.3     1  UNL1       -0.2665
     34 C         142.6456  139.2513  168.7397 C.3     1  UNL1        0.0899
     35 C         141.5288  139.7388  169.6144 C.3     1  UNL1        0.0897
@<TRIPOS>BOND
     1    29    30    1
     2    30    31    1
     3    31    32    1
     4    32    33    1
     5    33    28    1
     6    28     1    1
     7     1     2   ar
     8     2     3   ar
     9     3     4   ar
    10     4     5   ar
    11     5     6   ar
    12     5     7    1
    13     7     8    1
    14     8     9    2
    15     9    13    1
    16    13    14   ar
    17    14    15   ar
    18    15    16   ar
    19    16    18    1
    20    18    19    3
    21    19    20    1
    22    20    21    1
    23    21    22    1
    24    22    23   ar
    25    23    24   ar
    26    24    25   ar
    27    25    26   ar
    28    26    27   ar
    29    16    17   ar
    30     9    10    1
    31    10    11    2
    32    11    12    1
    33    33    34    1
    34    34    35    1
    35    35    30    1
    36     6     1   ar
    37    12     8    1
    38    12     4    1
    39    17    13   ar
    40    27    22   ar
@<TRIPOS>MOLECULE
*****
 35 40 0 0 0
SMALL
GASTEIGER

@<TRIPOS>ATOM
      1 C         139.8432  146.7414  155.7530 C.ar    1  UNL1       -0.0065
      2 C         140.9854  146.1017  155.0210 C.ar    1  UNL1       -0.0032
      3 C         141.9426  145.2111  155.7562 C.ar    1  UNL1       -0.0026
      4 C         141.7575  144.9603  157.2235 C.ar    1  UNL1        0.0019
      5 C         140.6152  145.6000  157.9555 C.ar    1  UNL1       -0.0200
      6 C         139.6581  146.4906  157.2203 C.ar    1  UNL1       -0.0071
      7 C         140.6862  145.1709  159.3911 C.3     1  UNL1        0.0519
      8 C         141.8724  144.2660  159.5463 C.2     1  UNL1        0.0074
      9 C         142.6493  143.4415  160.5295 C.2     1  UNL1        0.0976
     10 N         143.7916  142.8018  159.7974 N.2     1  UNL1       -0.1526
     11 N         143.7206  143.2309  158.3619 N.2     1  UNL1       -0.1678
     12 C         142.5345  144.1357  158.2067 C.3     1  UNL1        0.1672
     13 C         142.3385  143.2844  161.9885 C.ar    1  UNL1        0.0265
     14 C         142.8073  144.1860  163.0919 C.ar    1  UNL1        0.0376
     15 S         142.2629  143.6569  164.3856 S.2     1  UNL1       -0.0780
     16 C         141.4577  142.4284  164.0818 C.ar    1  UNL1        0.0709
     17 C         141.5044  142.1982  162.6003 C.ar    1  UNL1        0.0168
     18 C         140.7330  141.5792  165.0835 C.1     1  UNL1       -0.0578
     19 C         140.0082  140.7299  166.0853 C.1     1  UNL1       -0.0856
     20 C         139.2835  139.8807  167.0871 C.3     1  UNL1        0.0811
     21 C         139.4907  140.1105  168.5548 C.3     1  UNL1        0.0403
     22 C         140.6257  140.9704  169.0264 C.ar    1  UNL1       -0.0212
     23 C         141.9941  140.3798  169.1958 C.ar    1  UNL1       -0.0042
     24 C         143.1290  141.2396  169.6674 C.ar    1  UNL1       -0.0003
     25 C         142.8956  142.6902  169.9696 C.ar    1  UNL1       -0.0000
     26 C         141.5272  143.2808  169.8002 C.ar    1  UNL1       -0.0003
     27 C         140.3923  142.4210  169.3286 C.ar    1  UNL1       -0.0042
     28 C         138.8859  147.6321  155.0178 C.3     1  UNL1        0.0992
     29 C         140.4089  153.3027  153.7834 C.3     1  UNL1        0.0897
     30 N         140.0281  151.8851  154.0920 N.3     1  UNL1       -0.2691
     31 C         140.5844  150.7626  153.2671 C.3     1  UNL1        0.0897
     32 C         140.2037  149.3449  153.5756 C.3     1  UNL1        0.0899
     33 N         139.2667  149.0497  154.7092 N.3     1  UNL1       -0.2665
     34 C         138.7104  150.1723  155.5341 C.3     1  UNL1        0.0899
     35 C         139.0911  151.5899  155.2255 C.3     1  UNL1        0.0897
@<TRIPOS>BOND
     1    29    30    1
     2    30    31    1
     3    31    32    1
     4    32    33    1
     5    33    28    1
     6    28     1    1
     7     1     2   ar
     8     2     3   ar
     9     3     4   ar
    10     4     5   ar
    11     5     6   ar
    12     5     7    1
    13     7     8    1
    14     8     9    2
    15     9    13    1
    16    13    14   ar
    17    14    15   ar
    18    15    16   ar
    19    16    18    1
    20    18    19    3
    21    19    20    1
    22    20    21    1
    23    21    22    1
    24    22    23   ar
    25    23    24   ar
    26    24    25   ar
    27    25    26   ar
    28    26    27   ar
    29    16    17   ar
    30     9    10    1
    31    10    11    2
    32    11    12    1
    33    33    34    1
    34    34    35    1
    35    35    30    1
    36     6     1   ar
    37    12     8    1
    38    12     4    1
    39    17    13   ar
    40    27    22   ar
@<TRIPOS>MOLECULE
*****
 35 40 0 0 0
SMALL
GASTEIGER

@<TRIPOS>ATOM
      1 C         142.5224  136.4227  155.7115 C.ar    1  UNL1       -0.0065
      2 C         141.6061  136.8170  154.5912 C.ar    1  UNL1       -0.0032
      3 C         140.4472  137.7315  154.8568 C.ar    1  UNL1       -0.0026
      4 C         140.2046  138.2518  156.2426 C.ar    1  UNL1        0.0019
      5 C         141.1209  137.8576  157.3628 C.ar    1  UNL1       -0.0200
      6 C         142.2798  136.9431  157.0973 C.ar    1  UNL1       -0.0071
      7 C         140.6345  138.5237  158.6157 C.3     1  UNL1        0.0519
      8 C         139.4176  139.3296  158.2698 C.2     1  UNL1        0.0074
      9 C         138.3649  140.2393  158.8304 C.2     1  UNL1        0.0976
     10 N         137.4486  140.6336  157.7101 N.2     1  UNL1       -0.1526
     11 N         137.9350  139.9675  156.4572 N.2     1  UNL1       -0.1678
     12 C         139.1519  139.1616  156.8031 C.3     1  UNL1        0.1672
     13 C         138.2489  140.6778  160.2601 C.ar    1  UNL1        0.0265
     14 C         138.0266  142.0828  160.7362 C.ar    1  UNL1        0.0376
     15 S         137.9751  142.0616  162.2352 S.2     1  UNL1       -0.0780
     16 C         138.1656  140.6436  162.6855 C.ar    1  UNL1        0.0709
     17 C         138.3348  139.7883  161.4649 C.ar    1  UNL1        0.0168
     18 C         138.1837  140.1648  164.1069 C.1     1  UNL1       -0.0578
     19 C         138.2018  139.6860  165.5284 C.1     1  UNL1       -0.0856
     20 C         138.2199  139.2072  166.9498 C.3     1  UNL1        0.0811
     21 C         139.2970  139.6726  167.8843 C.3     1  UNL1        0.0403
     22 C         140.4956  140.3964  167.3462 C.ar    1  UNL1       -0.0212
     23 C         141.6850  139.6212  166.8620 C.ar    1  UNL1       -0.0042
     24 C         142.8835  140.3449  166.3239 C.ar    1  UNL1       -0.0003
     25 C         142.8928  141.8439  166.2700 C.ar    1  UNL1       -0.0000
     26 C         141.7034  142.6191  166.7543 C.ar    1  UNL1       -0.0003
     27 C         140.5049  141.8954  167.2923 C.ar    1  UNL1       -0.0042
     28 C         143.6813  135.5081  155.4459 C.3     1  UNL1        0.0992
     29 C         143.1139  129.6047  156.3555 C.3     1  UNL1        0.0897
     30 N         143.2557  131.0805  156.1281 N.3     1  UNL1       -0.2691
     31 C         144.0147  131.9213  157.1114 C.3     1  UNL1        0.0897
     32 C         144.1566  133.3972  156.8841 C.3     1  UNL1        0.0899
     33 N         143.5395  134.0323  155.6733 N.3     1  UNL1       -0.2665
     34 C         142.7804  133.1914  154.6900 C.3     1  UNL1        0.0899
     35 C         142.6386  131.7156  154.9174 C.3     1  UNL1        0.0897
@<TRIPOS>BOND
     1    29    30    1
     2    30    31    1
     3    31    32    1
     4    32    33    1
     5    33    28    1
     6    28     1    1
     7     1     2   ar
     8     2     3   ar
     9     3     4   ar
    10     4     5   ar
    11     5     6   ar
    12     5     7    1
    13     7     8    1
    14     8     9    2
    15     9    13    1
    16    13    14   ar
    17    14    15   ar
    18    15    16   ar
    19    16    18    1
    20    18    19    3
    21    19    20    1
    22    20    21    1
    23    21    22    1
    24    22    23   ar
    25    23    24   ar
    26    24    25   ar
    27    25    26   ar
    28    26    27   ar
    29    16    17   ar
    30     9    10    1
    31    10    11    2
    32    11    12    1
    33    33    34    1
    34    34    35    1
    35    35    30    1
    36     6     1   ar
    37    12     8    1
    38    12     4    1
    39    17    13   ar
    40    27    22   ar
@<TRIPOS>MOLECULE
*****
 35 40 0 0 0
SMALL
GASTEIGER

@<TRIPOS>ATOM
      1 C         142.7399  135.5259  155.8544 C.ar    1  UNL1       -0.0065
      2 C         141.6284  135.5884  154.8491 C.ar    1  UNL1       -0.0032
      3 C         140.5031  136.5626  155.0350 C.ar    1  UNL1       -0.0026
      4 C         140.4893  137.4743  156.2260 C.ar    1  UNL1        0.0019
      5 C         141.6009  137.4118  157.2312 C.ar    1  UNL1       -0.0200
      6 C         142.7262  136.4376  157.0454 C.ar    1  UNL1       -0.0071
      7 C         141.3189  138.4281  158.2978 C.3     1  UNL1        0.0519
      8 C         140.0330  139.1187  157.9518 C.2     1  UNL1        0.0074
      9 C         139.0641  140.1735  158.3972 C.2     1  UNL1        0.0976
     10 N         137.9526  140.2360  157.3920 N.2     1  UNL1       -0.1526
     11 N         138.2345  139.2198  156.3254 N.2     1  UNL1       -0.1678
     12 C         139.5203  138.5292  156.6714 C.3     1  UNL1        0.1672
     13 C         139.1854  141.0177  159.6312 C.ar    1  UNL1        0.0265
     14 C         138.0967  141.2833  160.6283 C.ar    1  UNL1        0.0376
     15 S         138.6552  142.1742  161.6981 S.2     1  UNL1       -0.0780
     16 C         140.0891  142.4592  161.3621 C.ar    1  UNL1        0.0709
     17 C         140.4168  141.7444  160.0848 C.ar    1  UNL1        0.0168
     18 C         141.0300  143.3096  162.1629 C.1     1  UNL1       -0.0578
     19 C         141.9710  144.1600  162.9638 C.1     1  UNL1       -0.0856
     20 C         142.9120  145.0105  163.7646 C.3     1  UNL1        0.0811
     21 C         144.0688  144.3790  164.4808 C.3     1  UNL1        0.0403
     22 C         144.1640  142.8853  164.5808 C.ar    1  UNL1       -0.0212
     23 C         143.2075  142.1297  165.4549 C.ar    1  UNL1       -0.0042
     24 C         143.3026  140.6361  165.5549 C.ar    1  UNL1       -0.0003
     25 C         144.3543  139.8981  164.7808 C.ar    1  UNL1       -0.0000
     26 C         145.3108  140.6537  163.9067 C.ar    1  UNL1       -0.0003
     27 C         145.2157  142.1473  163.8067 C.ar    1  UNL1       -0.0042
     28 C         143.8653  134.5516  155.6686 C.3     1  UNL1        0.0992
     29 C         143.5050  129.0604  158.0595 C.3     1  UNL1        0.0897
     30 N         143.5950  130.4332  157.4618 N.3     1  UNL1       -0.2691
     31 C         144.6301  131.3999  157.9558 C.3     1  UNL1        0.0897
     32 C         144.7202  132.7727  157.3581 C.3     1  UNL1        0.0899
     33 N         143.7752  133.1788  156.2663 N.3     1  UNL1       -0.2665
     34 C         142.7401  132.2121  155.7722 C.3     1  UNL1        0.0899
     35 C         142.6500  130.8393  156.3699 C.3     1  UNL1        0.0897
@<TRIPOS>BOND
     1    29    30    1
     2    30    31    1
     3    31    32    1
     4    32    33    1
     5    33    28    1
     6    28     1    1
     7     1     2   ar
     8     2     3   ar
     9     3     4   ar
    10     4     5   ar
    11     5     6   ar
    12     5     7    1
    13     7     8    1
    14     8     9    2
    15     9    13    1
    16    13    14   ar
    17    14    15   ar
    18    15    16   ar
    19    16    18    1
    20    18    19    3
    21    19    20    1
    22    20    21    1
    23    21    22    1
    24    22    23   ar
    25    23    24   ar
    26    24    25   ar
    27    25    26   ar
    28    26    27   ar
    29    16    17   ar
    30     9    10    1
    31    10    11    2
    32    11    12    1
    33    33    34    1
    34    34    35    1
    35    35    30    1
    36     6     1   ar
    37    12     8    1
    38    12     4    1
    39    17    13   ar
    40    27    22   ar
@<TRIPOS>MOLECULE
*****
 35 40 0 0 0
SMALL
GASTEIGER

@<TRIPOS>ATOM
      1 C         143.4086  131.4810  154.9017 C.ar    1  UNL1       -0.0065
      2 C         142.2161  131.8199  154.0573 C.ar    1  UNL1       -0.0032
      3 C         141.5378  133.1482  154.2164 C.ar    1  UNL1       -0.0026
      4 C         142.0520  134.1377  155.2197 C.ar    1  UNL1        0.0019
      5 C         143.2445  133.7987  156.0640 C.ar    1  UNL1       -0.0200
      6 C         143.9228  132.4704  155.9050 C.ar    1  UNL1       -0.0071
      7 C         143.5229  134.9666  156.9631 C.3     1  UNL1        0.0519
      8 C         142.5023  136.0274  156.6745 C.2     1  UNL1        0.0074
      9 C         142.0437  137.4048  157.0518 C.2     1  UNL1        0.0976
     10 N         140.8512  137.7438  156.2075 N.2     1  UNL1       -0.1526
     11 N         140.5728  136.5759  155.3084 N.2     1  UNL1       -0.1678
     12 C         141.5932  135.5151  155.5970 C.3     1  UNL1        0.1672
     13 C         142.6680  138.2882  158.0910 C.ar    1  UNL1        0.0265
     14 C         143.2960  139.6285  157.8471 C.ar    1  UNL1        0.0376
     15 S         143.7900  140.1550  159.1619 S.2     1  UNL1       -0.0780
     16 C         143.4673  139.1402  160.2184 C.ar    1  UNL1        0.0709
     17 C         142.7739  137.9865  159.5565 C.ar    1  UNL1        0.0168
     18 C         143.7827  139.2583  161.6801 C.1     1  UNL1       -0.0578
     19 C         144.0982  139.3765  163.1418 C.1     1  UNL1       -0.0856
     20 C         144.4135  139.4947  164.6035 C.3     1  UNL1        0.0811
     21 C         143.6782  138.6486  165.6002 C.3     1  UNL1        0.0403
     22 C         142.1786  138.6146  165.5937 C.ar    1  UNL1       -0.0212
     23 C         141.4552  137.5901  164.7708 C.ar    1  UNL1       -0.0042
     24 C         139.9557  137.5560  164.7642 C.ar    1  UNL1       -0.0003
     25 C         139.1794  138.5464  165.5806 C.ar    1  UNL1       -0.0000
     26 C         139.9028  139.5709  166.4035 C.ar    1  UNL1       -0.0003
     27 C         141.4024  139.6050  166.4101 C.ar    1  UNL1       -0.0042
     28 C         144.0870  130.1526  154.7427 C.3     1  UNL1        0.0992
     29 C         144.4349  126.3853  159.3995 C.3     1  UNL1        0.0897
     30 N         144.3480  127.3271  158.2353 N.3     1  UNL1       -0.2691
     31 C         145.1301  127.0493  156.9859 C.3     1  UNL1        0.0897
     32 C         145.0431  127.9912  155.8217 C.3     1  UNL1        0.0899
     33 N         144.1740  129.2108  155.9069 N.3     1  UNL1       -0.2665
     34 C         143.3919  129.4885  157.1564 C.3     1  UNL1        0.0899
     35 C         143.4789  128.5467  158.3206 C.3     1  UNL1        0.0897
@<TRIPOS>BOND
     1    29    30    1
     2    30    31    1
     3    31    32    1
     4    32    33    1
     5    33    28    1
     6    28     1    1
     7     1     2   ar
     8     2     3   ar
     9     3     4   ar
    10     4     5   ar
    11     5     6   ar
    12     5     7    1
    13     7     8    1
    14     8     9    2
    15     9    13    1
    16    13    14   ar
    17    14    15   ar
    18    15    16   ar
    19    16    18    1
    20    18    19    3
    21    19    20    1
    22    20    21    1
    23    21    22    1
    24    22    23   ar
    25    23    24   ar
    26    24    25   ar
    27    25    26   ar
    28    26    27   ar
    29    16    17   ar
    30     9    10    1
    31    10    11    2
    32    11    12    1
    33    33    34    1
    34    34    35    1
    35    35    30    1
    36     6     1   ar
    37    12     8    1
    38    12     4    1
    39    17    13   ar
    40    27    22   ar
@<TRIPOS>MOLECULE
*****
 35 40 0 0 0
SMALL
GASTEIGER

@<TRIPOS>ATOM
      1 C         143.5968  139.6407  164.9144 C.ar    1  UNL1       -0.0065
      2 C         143.9079  141.1066  164.8510 C.ar    1  UNL1       -0.0032
      3 C         144.0500  141.7863  163.5214 C.ar    1  UNL1       -0.0026
      4 C         143.8810  141.0000  162.2553 C.ar    1  UNL1        0.0019
      5 C         143.5699  139.5340  162.3187 C.ar    1  UNL1       -0.0200
      6 C         143.4278  138.8543  163.6483 C.ar    1  UNL1       -0.0071
      7 C         143.4590  139.0224  160.9130 C.3     1  UNL1        0.0519
      8 C         143.7016  140.1723  159.9808 C.2     1  UNL1        0.0074
      9 C         143.7829  140.5667  158.5359 C.2     1  UNL1        0.0976
     10 N         144.0941  142.0327  158.4724 N.2     1  UNL1       -0.1526
     11 N         144.2050  142.5442  159.8781 N.2     1  UNL1       -0.1678
     12 C         143.9624  141.3945  160.8103 C.3     1  UNL1        0.1672
     13 C         143.5875  139.6552  157.3607 C.ar    1  UNL1        0.0265
     14 C         143.9409  139.9650  155.9362 C.ar    1  UNL1        0.0376
     15 S         143.5762  138.7751  155.0989 S.2     1  UNL1       -0.0780
     16 C         142.9974  137.7299  156.0059 C.ar    1  UNL1        0.0709
     17 C         143.0044  138.2739  157.4038 C.ar    1  UNL1        0.0168
     18 C         142.4991  136.3782  155.5883 C.1     1  UNL1       -0.0578
     19 C         142.0008  135.0263  155.1708 C.1     1  UNL1       -0.0856
     20 C         141.5025  133.6746  154.7532 C.3     1  UNL1        0.0811
     21 C         142.4768  132.5659  154.4854 C.3     1  UNL1        0.0403
     22 C         143.2123  131.9226  155.6236 C.ar    1  UNL1       -0.0212
     23 C         144.4780  132.5384  156.1421 C.ar    1  UNL1       -0.0042
     24 C         145.2135  131.8952  157.2802 C.ar    1  UNL1       -0.0003
     25 C         144.6833  130.6362  157.8998 C.ar    1  UNL1       -0.0000
     26 C         143.4176  130.0205  157.3812 C.ar    1  UNL1       -0.0003
     27 C         142.6821  130.6637  156.2432 C.ar    1  UNL1       -0.0042
     28 C         143.4547  138.9609  166.2441 C.3     1  UNL1        0.0992
     29 C         138.9564  140.4672  169.9178 C.3     1  UNL1        0.0897
     30 N         140.0809  140.0906  168.9994 N.3     1  UNL1       -0.2691
     31 C         141.4370  139.7824  169.5614 C.3     1  UNL1        0.0897
     32 C         142.5617  139.4058  168.6429 C.3     1  UNL1        0.0899
     33 N         142.3301  139.3375  167.1625 N.3     1  UNL1       -0.2665
     34 C         140.9739  139.6458  166.6005 C.3     1  UNL1        0.0899
     35 C         139.8494  140.0223  167.5189 C.3     1  UNL1        0.0897
@<TRIPOS>BOND
     1    29    30    1
     2    30    31    1
     3    31    32    1
     4    32    33    1
     5    33    28    1
     6    28     1    1
     7     1     2   ar
     8     2     3   ar
     9     3     4   ar
    10     4     5   ar
    11     5     6   ar
    12     5     7    1
    13     7     8    1
    14     8     9    2
    15     9    13    1
    16    13    14   ar
    17    14    15   ar
    18    15    16   ar
    19    16    18    1
    20    18    19    3
    21    19    20    1
    22    20    21    1
    23    21    22    1
    24    22    23   ar
    25    23    24   ar
    26    24    25   ar
    27    25    26   ar
    28    26    27   ar
    29    16    17   ar
    30     9    10    1
    31    10    11    2
    32    11    12    1
    33    33    34    1
    34    34    35    1
    35    35    30    1
    36     6     1   ar
    37    12     8    1
    38    12     4    1
    39    17    13   ar
    40    27    22   ar
@<TRIPOS>MOLECULE
*****
 35 40 0 0 0
SMALL
GASTEIGER

@<TRIPOS>ATOM
      1 C         138.7441  139.5196  165.1530 C.ar    1  UNL1       -0.0065
      2 C         137.7790  140.5481  164.6425 C.ar    1  UNL1       -0.0032
      3 C         137.6524  140.7912  163.1678 C.ar    1  UNL1       -0.0026
      4 C         138.4911  140.0057  162.2036 C.ar    1  UNL1        0.0019
      5 C         139.4562  138.9772  162.7141 C.ar    1  UNL1       -0.0200
      6 C         139.5827  138.7342  164.1888 C.ar    1  UNL1       -0.0071
      7 C         140.1454  138.3615  161.5326 C.3     1  UNL1        0.0519
      8 C         139.6063  139.0095  160.2919 C.2     1  UNL1        0.0074
      9 C         139.6990  139.0295  158.7949 C.2     1  UNL1        0.0976
     10 N         138.7339  140.0580  158.2844 N.2     1  UNL1       -0.1526
     11 N         138.0447  140.6737  159.4658 N.2     1  UNL1       -0.1678
     12 C         138.5838  140.0257  160.7065 C.3     1  UNL1        0.1672
     13 C         140.5990  138.1716  157.9557 C.ar    1  UNL1        0.0265
     14 C         142.0875  138.0526  158.0977 C.ar    1  UNL1        0.0376
     15 S         142.5769  137.0895  157.0570 S.2     1  UNL1       -0.0780
     16 C         141.3908  136.6133  156.2719 C.ar    1  UNL1        0.0709
     17 C         140.1684  137.2820  156.8273 C.ar    1  UNL1        0.0168
     18 C         141.4216  135.6393  155.1316 C.1     1  UNL1       -0.0578
     19 C         141.4524  134.6653  153.9912 C.1     1  UNL1       -0.0856
     20 C         141.4833  133.6913  152.8508 C.3     1  UNL1        0.0811
     21 C         141.4407  132.2168  153.1226 C.3     1  UNL1        0.0403
     22 C         142.3472  131.6183  154.1571 C.ar    1  UNL1       -0.0212
     23 C         142.0032  131.7334  155.6126 C.ar    1  UNL1       -0.0042
     24 C         142.9096  131.1349  156.6470 C.ar    1  UNL1       -0.0003
     25 C         144.1600  130.4214  156.2260 C.ar    1  UNL1       -0.0000
     26 C         144.5040  130.3063  154.7706 C.ar    1  UNL1       -0.0003
     27 C         143.5976  130.9047  153.7361 C.ar    1  UNL1       -0.0042
     28 C         138.8706  139.2766  166.6278 C.3     1  UNL1        0.0992
     29 C         141.9863  143.1020  170.0423 C.3     1  UNL1        0.0897
     30 N         141.2074  142.1457  169.1887 N.3     1  UNL1       -0.2691
     31 C         140.1754  141.2534  169.8122 C.3     1  UNL1        0.0897
     32 C         139.3964  140.2970  168.9586 C.3     1  UNL1        0.0899
     33 N         139.6495  140.2329  167.4815 N.3     1  UNL1       -0.2665
     34 C         140.6816  141.1253  166.8580 C.3     1  UNL1        0.0899
     35 C         141.4605  142.0816  167.7116 C.3     1  UNL1        0.0897
@<TRIPOS>BOND
     1    29    30    1
     2    30    31    1
     3    31    32    1
     4    32    33    1
     5    33    28    1
     6    28     1    1
     7     1     2   ar
     8     2     3   ar
     9     3     4   ar
    10     4     5   ar
    11     5     6   ar
    12     5     7    1
    13     7     8    1
    14     8     9    2
    15     9    13    1
    16    13    14   ar
    17    14    15   ar
    18    15    16   ar
    19    16    18    1
    20    18    19    3
    21    19    20    1
    22    20    21    1
    23    21    22    1
    24    22    23   ar
    25    23    24   ar
    26    24    25   ar
    27    25    26   ar
    28    26    27   ar
    29    16    17   ar
    30     9    10    1
    31    10    11    2
    32    11    12    1
    33    33    34    1
    34    34    35    1
    35    35    30    1
    36     6     1   ar
    37    12     8    1
    38    12     4    1
    39    17    13   ar
    40    27    22   ar
