@<TRIPOS>MOLECULE
*****
 27 29 0 0 0
SMALL
GASTEIGER

@<TRIPOS>ATOM
      1 N         141.9001  143.2939  164.0290 N.3     1  UNL1       -0.2687
      2 C         141.8024  144.7744  163.8083 C.3     1  UNL1        0.0885
      3 C         140.8249  145.0138  162.6960 C.3     1  UNL1        0.0770
      4 N         140.4242  146.3509  162.1470 N.3     1  UNL1       -0.3207
      5 C         140.3184  143.6812  162.2293 C.3     1  UNL1        0.1081
      6 C         140.9830  142.6184  163.0531 C.3     1  UNL1        0.0829
      7 H         140.9213  147.0871  162.6482 H       1  UNL1        0.1189
      8 H         139.4190  146.4791  162.2638 H       1  UNL1        0.1189
      9 C         139.3224  143.4518  161.1315 C.2     1  UNL1        0.2286
     10 O         137.8550  143.4341  161.4420 O.2     1  UNL1       -0.2748
     11 N         139.7937  143.2402  159.7233 N.am    1  UNL1       -0.2685
     12 C         138.9201  143.0004  158.5278 C.3     1  UNL1        0.0944
     13 C         139.8079  142.8432  157.3289 C.3     1  UNL1        0.0244
     14 C         141.2302  142.9859  157.7835 C.3     1  UNL1        0.0373
     15 C         141.2214  143.2313  159.2634 C.3     1  UNL1        0.1672
     16 C         142.4285  143.4324  160.1309 C.1     1  UNL1        0.0925
     17 N         143.6355  143.6335  160.9984 N.1     1  UNL1       -0.1942
     18 C         144.0849  142.0278  164.6402 C.3     1  UNL1        0.0222
     19 C         142.7634  142.6093  165.0469 C.3     1  UNL1        0.0802
     20 C         142.3051  142.5062  166.4715 C.ar    1  UNL1       -0.0077
     21 C         143.3117  142.3713  167.5753 C.ar    1  UNL1       -0.0023
     22 C         142.8534  142.2682  168.9998 C.ar    1  UNL1        0.0100
     23 C         141.3884  142.3000  169.3205 C.ar    1  UNL1        0.0684
     24 C         140.3818  142.4349  168.2167 C.ar    1  UNL1        0.0100
     25 C         140.8401  142.5380  166.7922 C.ar    1  UNL1       -0.0023
     26 C         140.9301  142.1969  170.7451 C.1     1  UNL1        0.1004
     27 N         140.4719  142.0937  172.1696 N.1     1  UNL1       -0.1908
@<TRIPOS>BOND
     1    18    19    1
     2    19    20    1
     3    20    21   ar
     4    21    22   ar
     5    22    23   ar
     6    23    26    1
     7    26    27    3
     8    23    24   ar
     9    24    25   ar
    10    19     1    1
    11     1     2    1
    12     2     3    1
    13     3     4    1
    14     3     5    1
    15     5     9    1
    16     9    10    2
    17     9    11   am
    18    11    12    1
    19    12    13    1
    20    13    14    1
    21    14    15    1
    22    15    16    1
    23    16    17    3
    24     5     6    1
    25    25    20   ar
    26     6     1    1
    27    15    11    1
    28     4     7    1
    29     4     8    1
@<TRIPOS>MOLECULE
*****
 27 29 0 0 0
SMALL
GASTEIGER

@<TRIPOS>ATOM
      1 N         143.0882  140.2450  164.4342 N.3     1  UNL1       -0.2687
      2 C         144.5773  140.4243  164.4552 C.3     1  UNL1        0.0885
      3 C         144.9492  141.3458  163.3315 C.3     1  UNL1        0.0770
      4 N         146.3368  141.7976  162.9843 N.3     1  UNL1       -0.3207
      5 C         143.6899  141.7361  162.6160 C.3     1  UNL1        0.1081
      6 C         142.5398  141.0558  163.2975 C.3     1  UNL1        0.0829
      7 H         147.0029  141.3803  163.6343 H       1  UNL1        0.1189
      8 H         146.3896  142.8142  163.0494 H       1  UNL1        0.1189
      9 C         143.5971  142.6467  161.4278 C.2     1  UNL1        0.2286
     10 O         143.4387  144.1251  161.6265 O.2     1  UNL1       -0.2748
     11 N         143.6626  142.0791  160.0409 N.am    1  UNL1       -0.2685
     12 C         143.5838  142.8613  158.7635 C.3     1  UNL1        0.0944
     13 C         143.6909  141.8953  157.6209 C.3     1  UNL1        0.0244
     14 C         143.8360  140.5159  158.1923 C.3     1  UNL1        0.0373
     15 C         143.8185  140.6296  159.6880 C.3     1  UNL1        0.1672
     16 C         143.9362  139.4932  160.6600 C.1     1  UNL1        0.0925
     17 N         144.0539  138.3567  161.6319 N.1     1  UNL1       -0.1942
     18 C         141.8522  138.0258  164.9791 C.3     1  UNL1        0.0222
     19 C         142.2880  139.4029  165.3832 C.3     1  UNL1        0.0802
     20 C         141.9237  139.9381  166.7363 C.ar    1  UNL1       -0.0077
     21 C         140.8180  140.9424  166.8728 C.ar    1  UNL1       -0.0023
     22 C         140.4537  141.4775  168.2259 C.ar    1  UNL1        0.0100
     23 C         141.1952  141.0083  169.4425 C.ar    1  UNL1        0.0684
     24 C         142.3010  140.0041  169.3060 C.ar    1  UNL1        0.0100
     25 C         142.6653  139.4690  167.9529 C.ar    1  UNL1       -0.0023
     26 C         140.8309  141.5435  170.7957 C.1     1  UNL1        0.1004
     27 N         140.4667  142.0786  172.1488 N.1     1  UNL1       -0.1908
@<TRIPOS>BOND
     1    18    19    1
     2    19    20    1
     3    20    21   ar
     4    21    22   ar
     5    22    23   ar
     6    23    26    1
     7    26    27    3
     8    23    24   ar
     9    24    25   ar
    10    19     1    1
    11     1     2    1
    12     2     3    1
    13     3     4    1
    14     3     5    1
    15     5     9    1
    16     9    10    2
    17     9    11   am
    18    11    12    1
    19    12    13    1
    20    13    14    1
    21    14    15    1
    22    15    16    1
    23    16    17    3
    24     5     6    1
    25    25    20   ar
    26     6     1    1
    27    15    11    1
    28     4     7    1
    29     4     8    1
@<TRIPOS>MOLECULE
*****
 27 29 0 0 0
SMALL
GASTEIGER

@<TRIPOS>ATOM
      1 N         140.0249  139.4391  163.7858 N.3     1  UNL1       -0.2687
      2 C         138.5920  139.3841  163.3455 C.3     1  UNL1        0.0885
      3 C         138.4218  140.3385  162.2008 C.3     1  UNL1        0.0770
      4 N         137.1476  140.6017  161.4544 N.3     1  UNL1       -0.3207
      5 C         139.7495  140.9833  161.9336 C.3     1  UNL1        0.1081
      6 C         140.7402  140.4275  162.9132 C.3     1  UNL1        0.0829
      7 H         136.4001  140.0277  161.8447 H       1  UNL1        0.1189
      8 H         137.2761  140.3690  160.4697 H       1  UNL1        0.1189
      9 C         140.0361  142.0046  160.8731 C.2     1  UNL1        0.2286
     10 O         140.4202  141.5638  159.4917 O.2     1  UNL1       -0.2748
     11 N         139.9387  143.4666  161.1940 N.am    1  UNL1       -0.2685
     12 C         140.1947  144.5971  160.2420 C.3     1  UNL1        0.0944
     13 C         139.9824  145.8841  160.9828 C.3     1  UNL1        0.0244
     14 C         139.5951  145.5489  162.3927 C.3     1  UNL1        0.0373
     15 C         139.5681  144.0548  162.5231 C.3     1  UNL1        0.1672
     16 C         139.2299  143.2842  163.7649 C.1     1  UNL1        0.0925
     17 N         138.8917  142.5136  165.0066 N.1     1  UNL1       -0.1942
     18 C         141.2188  137.2909  164.6281 C.3     1  UNL1        0.0222
     19 C         140.6352  138.6452  164.9025 C.3     1  UNL1        0.0802
     20 C         140.6620  139.2056  166.2937 C.ar    1  UNL1       -0.0077
     21 C         141.9740  139.4582  166.9754 C.ar    1  UNL1       -0.0023
     22 C         142.0007  140.0186  168.3665 C.ar    1  UNL1        0.0100
     23 C         140.7154  140.3263  169.0759 C.ar    1  UNL1        0.0684
     24 C         139.4034  140.0737  168.3942 C.ar    1  UNL1        0.0100
     25 C         139.3767  139.5133  167.0031 C.ar    1  UNL1       -0.0023
     26 C         140.7422  140.8868  170.4671 C.1     1  UNL1        0.1004
     27 N         140.7689  141.4472  171.8582 N.1     1  UNL1       -0.1908
@<TRIPOS>BOND
     1    18    19    1
     2    19    20    1
     3    20    21   ar
     4    21    22   ar
     5    22    23   ar
     6    23    26    1
     7    26    27    3
     8    23    24   ar
     9    24    25   ar
    10    19     1    1
    11     1     2    1
    12     2     3    1
    13     3     4    1
    14     3     5    1
    15     5     9    1
    16     9    10    2
    17     9    11   am
    18    11    12    1
    19    12    13    1
    20    13    14    1
    21    14    15    1
    22    15    16    1
    23    16    17    3
    24     5     6    1
    25    25    20   ar
    26     6     1    1
    27    15    11    1
    28     4     7    1
    29     4     8    1
@<TRIPOS>MOLECULE
*****
 27 29 0 0 0
SMALL
GASTEIGER

@<TRIPOS>ATOM
      1 N         139.1670  140.4731  165.0557 N.3     1  UNL1       -0.2687
      2 C         137.9201  140.2444  164.2539 C.3     1  UNL1        0.0885
      3 C         138.1684  140.7383  162.8595 C.3     1  UNL1        0.0770
      4 N         137.1884  140.7043  161.7244 N.3     1  UNL1       -0.3207
      5 C         139.5689  141.2722  162.7994 C.3     1  UNL1        0.1081
      6 C         140.1861  141.1083  164.1567 C.3     1  UNL1        0.0829
      7 H         136.3129  140.2893  162.0435 H       1  UNL1        0.1189
      8 H         137.5711  140.1459  160.9614 H       1  UNL1        0.1189
      9 C         140.2353  141.8658  161.5938 C.2     1  UNL1        0.2286
     10 O         140.9531  140.9783  160.6206 O.2     1  UNL1       -0.2748
     11 N         140.1838  143.3467  161.3614 N.am    1  UNL1       -0.2685
     12 C         140.8001  144.0800  160.2071 C.3     1  UNL1        0.0944
     13 C         140.5042  145.5410  160.3748 C.3     1  UNL1        0.0244
     14 C         139.7050  145.7107  161.6328 C.3     1  UNL1        0.0373
     15 C         139.5071  144.3545  162.2425 C.3     1  UNL1        0.1672
     16 C         138.7629  144.0582  163.5108 C.1     1  UNL1        0.0925
     17 N         138.0187  143.7619  164.7791 N.1     1  UNL1       -0.1942
     18 C         138.4099  139.1878  167.1828 C.3     1  UNL1        0.0222
     19 C         139.3609  140.1272  166.5023 C.3     1  UNL1        0.0802
     20 C         140.5058  140.7208  167.2684 C.ar    1  UNL1       -0.0077
     21 C         140.3666  142.0769  167.8943 C.ar    1  UNL1       -0.0023
     22 C         141.5115  142.6704  168.6604 C.ar    1  UNL1        0.0100
     23 C         142.7956  141.9079  168.8006 C.ar    1  UNL1        0.0684
     24 C         142.9348  140.5518  168.1748 C.ar    1  UNL1        0.0100
     25 C         141.7899  139.9583  167.4087 C.ar    1  UNL1       -0.0023
     26 C         143.9405  142.5015  169.5667 C.1     1  UNL1        0.1004
     27 N         145.0853  143.0951  170.3329 N.1     1  UNL1       -0.1908
@<TRIPOS>BOND
     1    18    19    1
     2    19    20    1
     3    20    21   ar
     4    21    22   ar
     5    22    23   ar
     6    23    26    1
     7    26    27    3
     8    23    24   ar
     9    24    25   ar
    10    19     1    1
    11     1     2    1
    12     2     3    1
    13     3     4    1
    14     3     5    1
    15     5     9    1
    16     9    10    2
    17     9    11   am
    18    11    12    1
    19    12    13    1
    20    13    14    1
    21    14    15    1
    22    15    16    1
    23    16    17    3
    24     5     6    1
    25    25    20   ar
    26     6     1    1
    27    15    11    1
    28     4     7    1
    29     4     8    1
@<TRIPOS>MOLECULE
*****
 27 29 0 0 0
SMALL
GASTEIGER

@<TRIPOS>ATOM
      1 N         143.3825  140.2840  164.6553 N.3     1  UNL1       -0.2687
      2 C         144.6930  140.8855  164.2420 C.3     1  UNL1        0.0885
      3 C         144.5400  141.4170  162.8477 C.3     1  UNL1        0.0770
      4 N         145.6050  142.1013  162.0431 N.3     1  UNL1       -0.3207
      5 C         143.1348  141.1440  162.3992 C.3     1  UNL1        0.1081
      6 C         142.4195  140.4438  163.5164 C.3     1  UNL1        0.0829
      7 H         146.4638  142.1540  162.5909 H       1  UNL1        0.1189
      8 H         145.2968  143.0434  161.8026 H       1  UNL1        0.1189
      9 C         142.5480  141.5074  161.0675 C.2     1  UNL1        0.2286
     10 O         142.6252  140.5390  159.9246 O.2     1  UNL1       -0.2748
     11 N         141.8841  142.8391  160.8787 N.am    1  UNL1       -0.2685
     12 C         141.2558  143.3393  159.6118 C.3     1  UNL1        0.0944
     13 C         140.7153  144.7139  159.8738 C.3     1  UNL1        0.0244
     14 C         141.0096  145.0632  161.3026 C.3     1  UNL1        0.0373
     15 C         141.7320  143.9044  161.9236 C.3     1  UNL1        0.1672
     16 C         142.2170  143.8251  163.3409 C.1     1  UNL1        0.0925
     17 N         142.7020  143.7458  164.7580 N.1     1  UNL1       -0.1942
     18 C         143.5675  138.2426  166.2516 C.3     1  UNL1        0.0222
     19 C         143.0870  139.6364  165.9756 C.3     1  UNL1        0.0802
     20 C         142.3108  140.3828  167.0200 C.ar    1  UNL1       -0.0077
     21 C         142.9130  141.5842  167.6861 C.ar    1  UNL1       -0.0023
     22 C         142.1369  142.3305  168.7304 C.ar    1  UNL1        0.0100
     23 C         140.7585  141.8754  169.1086 C.ar    1  UNL1        0.0684
     24 C         140.1563  140.6739  168.4424 C.ar    1  UNL1        0.0100
     25 C         140.9325  139.9276  167.3981 C.ar    1  UNL1       -0.0023
     26 C         139.9824  142.6217  170.1529 C.1     1  UNL1        0.1004
     27 N         139.2063  143.3681  171.1972 N.1     1  UNL1       -0.1908
@<TRIPOS>BOND
     1    18    19    1
     2    19    20    1
     3    20    21   ar
     4    21    22   ar
     5    22    23   ar
     6    23    26    1
     7    26    27    3
     8    23    24   ar
     9    24    25   ar
    10    19     1    1
    11     1     2    1
    12     2     3    1
    13     3     4    1
    14     3     5    1
    15     5     9    1
    16     9    10    2
    17     9    11   am
    18    11    12    1
    19    12    13    1
    20    13    14    1
    21    14    15    1
    22    15    16    1
    23    16    17    3
    24     5     6    1
    25    25    20   ar
    26     6     1    1
    27    15    11    1
    28     4     7    1
    29     4     8    1
@<TRIPOS>MOLECULE
*****
 27 29 0 0 0
SMALL
GASTEIGER

@<TRIPOS>ATOM
      1 N         141.1280  143.4486  163.3977 N.3     1  UNL1       -0.2687
      2 C         140.2338  144.6529  163.3936 C.3     1  UNL1        0.0885
      3 C         140.0925  145.1206  161.9754 C.3     1  UNL1        0.0770
      4 N         139.2859  146.2970  161.5111 N.3     1  UNL1       -0.3207
      5 C         140.8993  144.2053  161.1029 C.3     1  UNL1        0.1081
      6 C         141.5393  143.1720  161.9819 C.3     1  UNL1        0.0829
      7 H         138.8394  146.7410  162.3135 H       1  UNL1        0.1189
      8 H         138.5709  145.9817  160.8556 H       1  UNL1        0.1189
      9 C         141.0413  144.3057  159.6130 C.2     1  UNL1        0.2286
     10 O         142.1996  145.0507  159.0186 O.2     1  UNL1       -0.2748
     11 N         140.0251  143.6611  158.7177 N.am    1  UNL1       -0.2685
     12 C         140.0351  143.6770  157.2178 C.3     1  UNL1        0.0944
     13 C         138.8366  142.9131  156.7381 C.3     1  UNL1        0.0244
     14 C         138.0859  142.4250  157.9415 C.3     1  UNL1        0.0373
     15 C         138.8205  142.8873  159.1650 C.3     1  UNL1        0.1672
     16 C         138.4205  142.6223  160.5862 C.1     1  UNL1        0.0925
     17 N         138.0206  142.3572  162.0074 N.1     1  UNL1       -0.1942
     18 C         142.8877  142.8808  165.2227 C.3     1  UNL1        0.0222
     19 C         141.5387  142.6595  164.6054 C.3     1  UNL1        0.0802
     20 C         140.6003  141.6491  165.1958 C.ar    1  UNL1       -0.0077
     21 C         140.5272  141.4730  166.6836 C.ar    1  UNL1       -0.0023
     22 C         139.5888  140.4626  167.2740 C.ar    1  UNL1        0.0100
     23 C         138.7236  139.6283  166.3765 C.ar    1  UNL1        0.0684
     24 C         138.7968  139.8044  164.8888 C.ar    1  UNL1        0.0100
     25 C         139.7351  140.8148  164.2984 C.ar    1  UNL1       -0.0023
     26 C         137.7852  138.6179  166.9670 C.1     1  UNL1        0.1004
     27 N         136.8470  137.6075  167.5574 N.1     1  UNL1       -0.1908
@<TRIPOS>BOND
     1    18    19    1
     2    19    20    1
     3    20    21   ar
     4    21    22   ar
     5    22    23   ar
     6    23    26    1
     7    26    27    3
     8    23    24   ar
     9    24    25   ar
    10    19     1    1
    11     1     2    1
    12     2     3    1
    13     3     4    1
    14     3     5    1
    15     5     9    1
    16     9    10    2
    17     9    11   am
    18    11    12    1
    19    12    13    1
    20    13    14    1
    21    14    15    1
    22    15    16    1
    23    16    17    3
    24     5     6    1
    25    25    20   ar
    26     6     1    1
    27    15    11    1
    28     4     7    1
    29     4     8    1
@<TRIPOS>MOLECULE
*****
 27 29 0 0 0
SMALL
GASTEIGER

@<TRIPOS>ATOM
      1 N         139.8292  141.8600  163.7987 N.3     1  UNL1       -0.2687
      2 C         138.5818  142.6841  163.9210 C.3     1  UNL1        0.0885
      3 C         138.5444  143.6426  162.7678 C.3     1  UNL1        0.0770
      4 N         137.4712  144.6549  162.4972 N.3     1  UNL1       -0.3207
      5 C         139.7688  143.4109  161.9328 C.3     1  UNL1        0.1081
      6 C         140.5628  142.3093  162.5699 C.3     1  UNL1        0.0829
      7 H         136.7576  144.5964  163.2237 H       1  UNL1        0.1189
      8 H         137.0476  144.4667  161.5886 H       1  UNL1        0.1189
      9 C         140.1349  144.1510  160.6804 C.2     1  UNL1        0.2286
     10 O         140.9290  145.4207  160.7647 O.2     1  UNL1       -0.2748
     11 N         139.7068  143.6213  159.3440 N.am    1  UNL1       -0.2685
     12 C         139.9972  144.2488  158.0128 C.3     1  UNL1        0.0944
     13 C         139.3830  143.3864  156.9501 C.3     1  UNL1        0.0244
     14 C         138.7132  142.2260  157.6245 C.3     1  UNL1        0.0373
     15 C         138.9133  142.3713  159.1040 C.3     1  UNL1        0.1672
     16 C         138.4085  141.4313  160.1585 C.1     1  UNL1        0.0925
     17 N         137.9037  140.4914  161.2128 N.1     1  UNL1       -0.1942
     18 C         140.6481  139.4283  164.2060 C.3     1  UNL1        0.0222
     19 C         140.2663  140.7770  164.7400 C.3     1  UNL1        0.0802
     20 C         140.3215  141.0427  166.2153 C.ar    1  UNL1       -0.0077
     21 C         139.8758  139.9882  167.1844 C.ar    1  UNL1       -0.0023
     22 C         139.9310  140.2539  168.6596 C.ar    1  UNL1        0.0100
     23 C         140.4320  141.5741  169.1657 C.ar    1  UNL1        0.0684
     24 C         140.8777  142.6286  168.1965 C.ar    1  UNL1        0.0100
     25 C         140.8225  142.3629  166.7213 C.ar    1  UNL1       -0.0023
     26 C         140.4872  141.8397  170.6410 C.1     1  UNL1        0.1004
     27 N         140.5424  142.1054  172.1162 N.1     1  UNL1       -0.1908
@<TRIPOS>BOND
     1    18    19    1
     2    19    20    1
     3    20    21   ar
     4    21    22   ar
     5    22    23   ar
     6    23    26    1
     7    26    27    3
     8    23    24   ar
     9    24    25   ar
    10    19     1    1
    11     1     2    1
    12     2     3    1
    13     3     4    1
    14     3     5    1
    15     5     9    1
    16     9    10    2
    17     9    11   am
    18    11    12    1
    19    12    13    1
    20    13    14    1
    21    14    15    1
    22    15    16    1
    23    16    17    3
    24     5     6    1
    25    25    20   ar
    26     6     1    1
    27    15    11    1
    28     4     7    1
    29     4     8    1
@<TRIPOS>MOLECULE
*****
 27 29 0 0 0
SMALL
GASTEIGER

@<TRIPOS>ATOM
      1 N         139.8320  142.7099  163.8489 N.3     1  UNL1       -0.2687
      2 C         139.5172  144.1718  163.7320 C.3     1  UNL1        0.0885
      3 C         140.4193  144.7581  162.6868 C.3     1  UNL1        0.0770
      4 N         140.4446  146.1922  162.2478 N.3     1  UNL1       -0.3207
      5 C         141.2916  143.6585  162.1577 C.3     1  UNL1        0.1081
      6 C         140.9286  142.3927  162.8759 C.3     1  UNL1        0.0829
      7 H         139.7473  146.7206  162.7721 H       1  UNL1        0.1189
      8 H         140.2339  146.2465  161.2513 H       1  UNL1        0.1189
      9 C         142.3424  143.7999  161.0966 C.2     1  UNL1        0.2286
     10 O         143.7601  144.1041  161.4810 O.2     1  UNL1       -0.2748
     11 N         141.9756  143.6372  159.6514 N.am    1  UNL1       -0.2685
     12 C         142.9129  143.7496  158.4858 C.3     1  UNL1        0.0944
     13 C         142.1236  143.5153  157.2319 C.3     1  UNL1        0.0244
     14 C         140.6984  143.2581  157.6226 C.3     1  UNL1        0.0373
     15 C         140.6070  143.3334  159.1179 C.3     1  UNL1        0.1672
     16 C         139.3648  143.1390  159.9362 C.1     1  UNL1        0.0925
     17 N         138.1228  142.9446  160.7543 N.1     1  UNL1       -0.1942
     18 C         138.0311  140.8886  164.2844 C.3     1  UNL1        0.0222
     19 C         139.1669  141.7361  164.7760 C.3     1  UNL1        0.0802
     20 C         139.6376  141.6100  166.1947 C.ar    1  UNL1       -0.0077
     21 C         140.3140  142.7682  166.8662 C.ar    1  UNL1       -0.0023
     22 C         140.7847  142.6420  168.2848 C.ar    1  UNL1        0.0100
     23 C         140.5789  141.3576  169.0319 C.ar    1  UNL1        0.0684
     24 C         139.9025  140.1995  168.3603 C.ar    1  UNL1        0.0100
     25 C         139.4318  140.3256  166.9417 C.ar    1  UNL1       -0.0023
     26 C         141.0496  141.2315  170.4506 C.1     1  UNL1        0.1004
     27 N         141.5204  141.1054  171.8692 N.1     1  UNL1       -0.1908
@<TRIPOS>BOND
     1    18    19    1
     2    19    20    1
     3    20    21   ar
     4    21    22   ar
     5    22    23   ar
     6    23    26    1
     7    26    27    3
     8    23    24   ar
     9    24    25   ar
    10    19     1    1
    11     1     2    1
    12     2     3    1
    13     3     4    1
    14     3     5    1
    15     5     9    1
    16     9    10    2
    17     9    11   am
    18    11    12    1
    19    12    13    1
    20    13    14    1
    21    14    15    1
    22    15    16    1
    23    16    17    3
    24     5     6    1
    25    25    20   ar
    26     6     1    1
    27    15    11    1
    28     4     7    1
    29     4     8    1
@<TRIPOS>MOLECULE
*****
 27 29 0 0 0
SMALL
GASTEIGER

@<TRIPOS>ATOM
      1 N         141.5155  142.5097  163.9254 N.3     1  UNL1       -0.2687
      2 C         142.7599  143.3351  164.0676 C.3     1  UNL1        0.0885
      3 C         142.7355  144.3970  163.0085 C.3     1  UNL1        0.0770
      4 N         143.7861  145.4441  162.7854 N.3     1  UNL1       -0.3207
      5 C         141.4760  144.2279  162.2116 C.3     1  UNL1        0.1081
      6 C         140.7220  143.0615  162.7783 C.3     1  UNL1        0.0829
      7 H         144.5330  145.3276  163.4703 H       1  UNL1        0.1189
      8 H         143.3708  146.3699  162.8893 H       1  UNL1        0.1189
      9 C         141.0459  145.0762  161.0517 C.2     1  UNL1        0.2286
     10 O         140.1066  146.2251  161.2705 O.2     1  UNL1       -0.2748
     11 N         141.5550  144.7756  159.6732 N.am    1  UNL1       -0.2685
     12 C         141.2147  145.5318  158.4233 C.3     1  UNL1        0.0944
     13 C         141.9432  144.8896  157.2800 C.3     1  UNL1        0.0244
     14 C         142.7338  143.7365  157.8235 C.3     1  UNL1        0.0373
     15 C         142.4938  143.6661  159.3025 C.3     1  UNL1        0.1672
     16 C         143.0884  142.6622  160.2454 C.1     1  UNL1        0.0925
     17 N         143.6830  141.6584  161.1881 N.1     1  UNL1       -0.1942
     18 C         140.8843  139.9995  164.1504 C.3     1  UNL1        0.0222
     19 C         141.1320  141.3382  164.7801 C.3     1  UNL1        0.0802
     20 C         140.9961  141.5055  166.2646 C.ar    1  UNL1       -0.0077
     21 C         141.2975  140.3558  167.1796 C.ar    1  UNL1       -0.0023
     22 C         141.1616  140.5232  168.6640 C.ar    1  UNL1        0.0100
     23 C         140.7243  141.8402  169.2334 C.ar    1  UNL1        0.0684
     24 C         140.4228  142.9899  168.3184 C.ar    1  UNL1        0.0100
     25 C         140.5588  142.8226  166.8340 C.ar    1  UNL1       -0.0023
     26 C         140.5884  142.0075  170.7179 C.1     1  UNL1        0.1004
     27 N         140.4525  142.1748  172.2023 N.1     1  UNL1       -0.1908
@<TRIPOS>BOND
     1    18    19    1
     2    19    20    1
     3    20    21   ar
     4    21    22   ar
     5    22    23   ar
     6    23    26    1
     7    26    27    3
     8    23    24   ar
     9    24    25   ar
    10    19     1    1
    11     1     2    1
    12     2     3    1
    13     3     4    1
    14     3     5    1
    15     5     9    1
    16     9    10    2
    17     9    11   am
    18    11    12    1
    19    12    13    1
    20    13    14    1
    21    14    15    1
    22    15    16    1
    23    16    17    3
    24     5     6    1
    25    25    20   ar
    26     6     1    1
    27    15    11    1
    28     4     7    1
    29     4     8    1
