@<TRIPOS>MOLECULE
*****
 27 30 0 0 0
SMALL
GASTEIGER

@<TRIPOS>ATOM
      1 C         138.5916  139.1412  162.9439 C.ar    1  UNL1        0.1349
      2 C         138.7709  137.8988  163.7650 C.ar    1  UNL1        0.0269
      3 C         138.8173  137.9891  165.2616 C.ar    1  UNL1        0.0408
      4 C         138.6845  139.3218  165.9371 C.ar    1  UNL1        0.1644
      5 C         138.5053  140.5642  165.1160 C.ar    1  UNL1        0.1363
      6 N         138.4588  140.4740  163.6195 N.ar    1  UNL1       -0.2361
      7 O         137.2692  139.3492  160.7173 O.2     1  UNL1       -0.2683
      8 C         138.5451  139.0510  161.4474 C.2     1  UNL1        0.2668
      9 N         139.7746  138.6627  160.6809 N.am    1  UNL1       -0.2734
     10 C         140.9960  138.3860  161.5067 C.3     1  UNL1        0.0952
     11 C         142.3647  137.9807  161.0455 C.3     1  UNL1        0.0388
     12 C         142.8498  137.7520  159.6448 C.3     1  UNL1        0.0739
     13 N         142.0864  137.8720  158.3591 N.3     1  UNL1       -0.2725
     14 C         140.6491  138.2504  158.1568 C.3     1  UNL1        0.0938
     15 C         139.6203  138.6023  159.1902 C.3     1  UNL1        0.1110
     16 C         142.8629  137.5742  157.1108 C.3     1  UNL1        0.0576
     17 C         143.3551  136.3259  156.4402 C.3     1  UNL1        0.0160
     18 C         143.9611  137.1530  155.3454 C.3     1  UNL1        0.0028
     19 C         143.4689  138.4013  156.0159 C.3     1  UNL1        0.0160
     20 O         138.7310  139.4120  167.4337 O.3     1  UNL1       -0.4519
     21 C         139.9885  139.8574  168.1195 C.ar    1  UNL1        0.1455
     22 C         141.2968  139.8172  167.3870 C.ar    1  UNL1        0.0398
     23 C         142.5542  140.2626  168.0729 C.ar    1  UNL1        0.0328
     24 C         142.5034  140.7481  169.4912 C.ar    1  UNL1        0.1403
     25 F         143.7609  141.1935  170.1771 F       1  UNL1       -0.2042
     26 C         141.1950  140.7882  170.2237 C.ar    1  UNL1        0.0328
     27 C         139.9375  140.3429  169.5378 C.ar    1  UNL1        0.0398
@<TRIPOS>BOND
     1     7     8    2
     2     8     1    1
     3     1     2   ar
     4     2     3   ar
     5     3     4   ar
     6     4    20    1
     7    20    21    1
     8    21    22   ar
     9    22    23   ar
    10    23    24   ar
    11    24    25    1
    12    24    26   ar
    13    26    27   ar
    14     4     5   ar
    15     5     6   ar
    16     8     9   am
    17     9    10    1
    18    10    11    1
    19    11    12    1
    20    12    13    1
    21    13    16    1
    22    16    17    1
    23    17    18    1
    24    18    19    1
    25    13    14    1
    26    14    15    1
    27     6     1   ar
    28    15     9    1
    29    27    21   ar
    30    19    16    1
@<TRIPOS>MOLECULE
*****
 27 30 0 0 0
SMALL
GASTEIGER

@<TRIPOS>ATOM
      1 C         139.5573  138.9940  164.3474 C.ar    1  UNL1        0.1349
      2 C         138.3349  138.7486  165.1813 C.ar    1  UNL1        0.0269
      3 C         138.3612  139.0358  166.6534 C.ar    1  UNL1        0.0408
      4 C         139.6099  139.5684  167.2914 C.ar    1  UNL1        0.1644
      5 C         140.8323  139.8138  166.4575 C.ar    1  UNL1        0.1363
      6 N         140.8061  139.5266  164.9855 N.ar    1  UNL1       -0.2361
      7 O         139.8805  137.3376  162.3720 O.2     1  UNL1       -0.2683
      8 C         139.5311  138.7068  162.8754 C.2     1  UNL1        0.2668
      9 N         139.1556  139.7887  161.9067 N.am    1  UNL1       -0.2734
     10 C         138.8246  141.1198  162.5141 C.3     1  UNL1        0.0952
     11 C         138.4169  142.3875  161.8234 C.3     1  UNL1        0.0388
     12 C         138.2396  142.6371  160.3551 C.3     1  UNL1        0.0739
     13 N         138.4262  141.6809  159.2146 N.3     1  UNL1       -0.2725
     14 C         138.8361  140.2387  159.2608 C.3     1  UNL1        0.0938
     15 C         139.1607  139.3967  160.4590 C.3     1  UNL1        0.1110
     16 C         138.1688  142.2408  157.8471 C.3     1  UNL1        0.0576
     17 C         137.1681  141.9727  156.7622 C.3     1  UNL1        0.0160
     18 C         137.8047  143.0327  155.9130 C.3     1  UNL1        0.0028
     19 C         138.8054  143.3008  156.9977 C.3     1  UNL1        0.0160
     20 O         139.6361  139.8556  168.7635 O.3     1  UNL1       -0.4519
     21 C         140.6114  140.8524  169.3159 C.ar    1  UNL1        0.1455
     22 C         140.2567  142.3094  169.3494 C.ar    1  UNL1        0.0398
     23 C         141.2321  143.3062  169.9019 C.ar    1  UNL1        0.0328
     24 C         142.5621  142.8459  170.4207 C.ar    1  UNL1        0.1403
     25 F         143.5374  143.8427  170.9732 F       1  UNL1       -0.2042
     26 C         142.9167  141.3888  170.3872 C.ar    1  UNL1        0.0328
     27 C         141.9413  140.3920  169.8347 C.ar    1  UNL1        0.0398
@<TRIPOS>BOND
     1     7     8    2
     2     8     1    1
     3     1     2   ar
     4     2     3   ar
     5     3     4   ar
     6     4    20    1
     7    20    21    1
     8    21    22   ar
     9    22    23   ar
    10    23    24   ar
    11    24    25    1
    12    24    26   ar
    13    26    27   ar
    14     4     5   ar
    15     5     6   ar
    16     8     9   am
    17     9    10    1
    18    10    11    1
    19    11    12    1
    20    12    13    1
    21    13    16    1
    22    16    17    1
    23    17    18    1
    24    18    19    1
    25    13    14    1
    26    14    15    1
    27     6     1   ar
    28    15     9    1
    29    27    21   ar
    30    19    16    1
@<TRIPOS>MOLECULE
*****
 27 30 0 0 0
SMALL
GASTEIGER

@<TRIPOS>ATOM
      1 C         138.6376  140.5994  164.4067 C.ar    1  UNL1        0.1349
      2 C         138.1126  139.4778  165.2531 C.ar    1  UNL1        0.0269
      3 C         138.6744  139.2468  166.6247 C.ar    1  UNL1        0.0408
      4 C         139.7611  140.1374  167.1498 C.ar    1  UNL1        0.1644
      5 C         140.2861  141.2590  166.3034 C.ar    1  UNL1        0.1363
      6 N         139.7244  141.4900  164.9319 N.ar    1  UNL1       -0.2361
      7 O         136.8916  141.7325  162.8520 O.2     1  UNL1       -0.2683
      8 C         138.0759  140.8304  163.0352 C.2     1  UNL1        0.2668
      9 N         138.6985  140.1593  161.8469 N.am    1  UNL1       -0.2734
     10 C         139.8769  139.2786  162.1402 C.3     1  UNL1        0.0952
     11 C         140.7082  138.4787  161.1815 C.3     1  UNL1        0.0388
     12 C         140.5664  138.3619  159.6929 C.3     1  UNL1        0.0739
     13 N         139.5584  139.0161  158.7951 N.3     1  UNL1       -0.2725
     14 C         138.4431  139.9487  159.1644 C.3     1  UNL1        0.0938
     15 C         138.0605  140.4574  160.5227 C.3     1  UNL1        0.1110
     16 C         139.6820  138.6953  157.3351 C.3     1  UNL1        0.0576
     17 C         140.4041  137.6513  156.5359 C.3     1  UNL1        0.0160
     18 C         139.8567  138.2415  155.2702 C.3     1  UNL1        0.0028
     19 C         139.1346  139.2855  156.0693 C.3     1  UNL1        0.0160
     20 O         140.3229  139.9064  168.5214 O.3     1  UNL1       -0.4519
     21 C         141.1841  140.9523  169.1651 C.ar    1  UNL1        0.1455
     22 C         140.5669  142.2180  169.6819 C.ar    1  UNL1        0.0398
     23 C         141.4282  143.2639  170.3256 C.ar    1  UNL1        0.0328
     24 C         142.9065  143.0441  170.4525 C.ar    1  UNL1        0.1403
     25 F         143.7677  144.0900  171.0962 F       1  UNL1       -0.2042
     26 C         143.5236  141.7784  169.9357 C.ar    1  UNL1        0.0328
     27 C         142.6624  140.7325  169.2920 C.ar    1  UNL1        0.0398
@<TRIPOS>BOND
     1     7     8    2
     2     8     1    1
     3     1     2   ar
     4     2     3   ar
     5     3     4   ar
     6     4    20    1
     7    20    21    1
     8    21    22   ar
     9    22    23   ar
    10    23    24   ar
    11    24    25    1
    12    24    26   ar
    13    26    27   ar
    14     4     5   ar
    15     5     6   ar
    16     8     9   am
    17     9    10    1
    18    10    11    1
    19    11    12    1
    20    12    13    1
    21    13    16    1
    22    16    17    1
    23    17    18    1
    24    18    19    1
    25    13    14    1
    26    14    15    1
    27     6     1   ar
    28    15     9    1
    29    27    21   ar
    30    19    16    1
@<TRIPOS>MOLECULE
*****
 27 30 0 0 0
SMALL
GASTEIGER

@<TRIPOS>ATOM
      1 C         138.2379  140.0746  159.6282 C.ar    1  UNL1        0.1349
      2 C         137.5937  140.3512  160.9543 C.ar    1  UNL1        0.0269
      3 C         138.0425  139.6057  162.1761 C.ar    1  UNL1        0.0408
      4 C         139.1354  138.5836  162.0718 C.ar    1  UNL1        0.1644
      5 C         139.7795  138.3070  160.7457 C.ar    1  UNL1        0.1363
      6 N         139.3308  139.0525  159.5239 N.ar    1  UNL1       -0.2361
      7 O         136.6678  140.2811  157.5686 O.2     1  UNL1       -0.2683
      8 C         137.7892  140.8201  158.4064 C.2     1  UNL1        0.2668
      9 N         138.4619  142.1046  158.0223 N.am    1  UNL1       -0.2734
     10 C         139.5706  142.5545  158.9271 C.3     1  UNL1        0.0952
     11 C         140.4282  143.7803  158.8173 C.3     1  UNL1        0.0388
     12 C         140.3889  144.8588  157.7756 C.3     1  UNL1        0.0739
     13 N         139.4825  144.9781  156.5865 N.3     1  UNL1       -0.2725
     14 C         138.3913  144.0482  156.1453 C.3     1  UNL1        0.0938
     15 C         137.9372  142.7694  156.7844 C.3     1  UNL1        0.1110
     16 C         139.6953  146.1871  155.7246 C.3     1  UNL1        0.0576
     17 C         139.0323  147.5263  155.5934 C.3     1  UNL1        0.0160
     18 C         139.9962  147.8970  154.5056 C.3     1  UNL1        0.0028
     19 C         140.6592  146.5579  154.6366 C.3     1  UNL1        0.0160
     20 O         139.5841  137.8380  163.2937 O.3     1  UNL1       -0.4519
     21 C         139.4775  138.4799  164.6452 C.ar    1  UNL1        0.1455
     22 C         138.3278  138.1418  165.5474 C.ar    1  UNL1        0.0398
     23 C         138.2213  138.7837  166.8989 C.ar    1  UNL1        0.0328
     24 C         139.2643  139.7636  167.3483 C.ar    1  UNL1        0.1403
     25 F         139.1576  140.4054  168.6998 F       1  UNL1       -0.2042
     26 C         140.4139  140.1016  166.4460 C.ar    1  UNL1        0.0328
     27 C         140.5205  139.4598  165.0944 C.ar    1  UNL1        0.0398
@<TRIPOS>BOND
     1     7     8    2
     2     8     1    1
     3     1     2   ar
     4     2     3   ar
     5     3     4   ar
     6     4    20    1
     7    20    21    1
     8    21    22   ar
     9    22    23   ar
    10    23    24   ar
    11    24    25    1
    12    24    26   ar
    13    26    27   ar
    14     4     5   ar
    15     5     6   ar
    16     8     9   am
    17     9    10    1
    18    10    11    1
    19    11    12    1
    20    12    13    1
    21    13    16    1
    22    16    17    1
    23    17    18    1
    24    18    19    1
    25    13    14    1
    26    14    15    1
    27     6     1   ar
    28    15     9    1
    29    27    21   ar
    30    19    16    1
@<TRIPOS>MOLECULE
*****
 27 30 0 0 0
SMALL
GASTEIGER

@<TRIPOS>ATOM
      1 C         140.4831  139.0693  158.7854 C.ar    1  UNL1        0.1349
      2 C         141.9716  139.0324  158.6043 C.ar    1  UNL1        0.0269
      3 C         142.5781  138.1432  157.5595 C.ar    1  UNL1        0.0408
      4 C         141.6961  137.2910  156.6960 C.ar    1  UNL1        0.1644
      5 C         140.2076  137.3279  156.8771 C.ar    1  UNL1        0.1363
      6 N         139.6010  138.2170  157.9218 N.ar    1  UNL1       -0.2361
      7 O         139.3347  141.3038  159.4473 O.2     1  UNL1       -0.2683
      8 C         139.8765  139.9585  159.8301 C.2     1  UNL1        0.2668
      9 N         139.8116  139.5024  161.2576 N.am    1  UNL1       -0.2734
     10 C         140.3809  138.1420  161.5326 C.3     1  UNL1        0.0952
     11 C         140.4653  137.4102  162.8393 C.3     1  UNL1        0.0388
     12 C         140.0013  137.8579  164.1935 C.3     1  UNL1        0.0739
     13 N         139.3382  139.1480  164.5758 N.3     1  UNL1       -0.2725
     14 C         138.9755  140.3090  163.6980 C.3     1  UNL1        0.0938
     15 C         139.1862  140.4666  162.2213 C.3     1  UNL1        0.1110
     16 C         138.9922  139.2967  166.0277 C.3     1  UNL1        0.0576
     17 C         139.5917  140.0292  167.1914 C.3     1  UNL1        0.0160
     18 C         138.5028  139.5071  168.0811 C.3     1  UNL1        0.0028
     19 C         137.9032  138.7746  166.9175 C.3     1  UNL1        0.0160
     20 O         142.3028  136.4017  155.6512 O.3     1  UNL1       -0.4519
     21 C         142.4018  134.9241  155.8895 C.ar    1  UNL1        0.1455
     22 C         143.3693  134.3914  156.9045 C.ar    1  UNL1        0.0398
     23 C         143.4682  132.9137  157.1428 C.ar    1  UNL1        0.0328
     24 C         142.5999  131.9689  156.3661 C.ar    1  UNL1        0.1403
     25 F         142.6990  130.4913  156.6044 F       1  UNL1       -0.2042
     26 C         141.6325  132.5018  155.3511 C.ar    1  UNL1        0.0328
     27 C         141.5335  133.9794  155.1128 C.ar    1  UNL1        0.0398
@<TRIPOS>BOND
     1     7     8    2
     2     8     1    1
     3     1     2   ar
     4     2     3   ar
     5     3     4   ar
     6     4    20    1
     7    20    21    1
     8    21    22   ar
     9    22    23   ar
    10    23    24   ar
    11    24    25    1
    12    24    26   ar
    13    26    27   ar
    14     4     5   ar
    15     5     6   ar
    16     8     9   am
    17     9    10    1
    18    10    11    1
    19    11    12    1
    20    12    13    1
    21    13    16    1
    22    16    17    1
    23    17    18    1
    24    18    19    1
    25    13    14    1
    26    14    15    1
    27     6     1   ar
    28    15     9    1
    29    27    21   ar
    30    19    16    1
@<TRIPOS>MOLECULE
*****
 27 30 0 0 0
SMALL
GASTEIGER

@<TRIPOS>ATOM
      1 C         138.6615  140.2876  162.0635 C.ar    1  UNL1        0.1349
      2 C         137.7053  140.6896  163.1471 C.ar    1  UNL1        0.0269
      3 C         138.0157  140.3673  164.5788 C.ar    1  UNL1        0.0408
      4 C         139.2823  139.6430  164.9270 C.ar    1  UNL1        0.1644
      5 C         140.2385  139.2410  163.8434 C.ar    1  UNL1        0.1363
      6 N         139.9281  139.5633  162.4117 N.ar    1  UNL1       -0.2361
      7 O         137.4728  139.6953  159.8306 O.2     1  UNL1       -0.2683
      8 C         138.3511  140.6099  160.6319 C.2     1  UNL1        0.2668
      9 N         138.9192  141.8467  160.0013 N.am    1  UNL1       -0.2734
     10 C         139.7840  142.6915  160.8894 C.3     1  UNL1        0.0952
     11 C         140.4905  143.9735  160.5616 C.3     1  UNL1        0.0388
     12 C         140.5067  144.7272  159.2649 C.3     1  UNL1        0.0739
     13 N         139.8204  144.3853  157.9757 N.3     1  UNL1       -0.2725
     14 C         138.9484  143.2051  157.6648 C.3     1  UNL1        0.0938
     15 C         138.5474  142.0754  158.5663 C.3     1  UNL1        0.1110
     16 C         140.0345  145.3513  156.8483 C.3     1  UNL1        0.0576
     17 C         139.1451  146.0263  155.8465 C.3     1  UNL1        0.0160
     18 C         140.3371  146.7175  155.2539 C.3     1  UNL1        0.0028
     19 C         141.2266  146.0426  156.2557 C.3     1  UNL1        0.0160
     20 O         139.5926  139.3207  166.3587 O.3     1  UNL1       -0.4519
     21 C         139.8387  140.4279  167.3404 C.ar    1  UNL1        0.1455
     22 C         139.4512  140.2544  168.7791 C.ar    1  UNL1        0.0398
     23 C         139.6973  141.3616  169.7607 C.ar    1  UNL1        0.0328
     24 C         140.3307  142.6422  169.3037 C.ar    1  UNL1        0.1403
     25 F         140.5767  143.7493  170.2854 F       1  UNL1       -0.2042
     26 C         140.7181  142.8155  167.8650 C.ar    1  UNL1        0.0328
     27 C         140.4721  141.7084  166.8833 C.ar    1  UNL1        0.0398
@<TRIPOS>BOND
     1     7     8    2
     2     8     1    1
     3     1     2   ar
     4     2     3   ar
     5     3     4   ar
     6     4    20    1
     7    20    21    1
     8    21    22   ar
     9    22    23   ar
    10    23    24   ar
    11    24    25    1
    12    24    26   ar
    13    26    27   ar
    14     4     5   ar
    15     5     6   ar
    16     8     9   am
    17     9    10    1
    18    10    11    1
    19    11    12    1
    20    12    13    1
    21    13    16    1
    22    16    17    1
    23    17    18    1
    24    18    19    1
    25    13    14    1
    26    14    15    1
    27     6     1   ar
    28    15     9    1
    29    27    21   ar
    30    19    16    1
@<TRIPOS>MOLECULE
*****
 27 30 0 0 0
SMALL
GASTEIGER

@<TRIPOS>ATOM
      1 C         141.5171  140.1486  159.3487 C.ar    1  UNL1        0.1349
      2 C         140.5837  139.9871  160.5117 C.ar    1  UNL1        0.0269
      3 C         139.7322  141.1395  160.9555 C.ar    1  UNL1        0.0408
      4 C         139.8141  142.4533  160.2364 C.ar    1  UNL1        0.1644
      5 C         140.7475  142.6147  159.0734 C.ar    1  UNL1        0.1363
      6 N         141.5990  141.4624  158.6295 N.ar    1  UNL1       -0.2361
      7 O         143.7266  138.7912  159.5079 O.2     1  UNL1       -0.2683
      8 C         142.3686  138.9963  158.9048 C.2     1  UNL1        0.2668
      9 N         141.8621  138.0490  157.8579 N.am    1  UNL1       -0.2734
     10 C         140.4929  138.3441  157.3208 C.3     1  UNL1        0.0952
     11 C         139.7152  137.5950  156.2796 C.3     1  UNL1        0.0388
     12 C         140.1146  136.3658  155.5184 C.3     1  UNL1        0.0739
     13 N         141.3903  135.5821  155.6102 N.3     1  UNL1       -0.2725
     14 C         142.5817  135.8340  156.4861 C.3     1  UNL1        0.0938
     15 C         142.7916  136.9319  157.4864 C.3     1  UNL1        0.1110
     16 C         141.4874  134.3886  154.7069 C.3     1  UNL1        0.0576
     17 C         141.3822  132.9042  154.8954 C.3     1  UNL1        0.0160
     18 C         141.6248  132.7007  153.4292 C.3     1  UNL1        0.0028
     19 C         141.7300  134.1851  153.2406 C.3     1  UNL1        0.0160
     20 O         138.9625  143.6057  160.6803 O.3     1  UNL1       -0.4519
     21 C         138.9060  143.9813  162.1314 C.ar    1  UNL1        0.1455
     22 C         140.0598  144.7003  162.7654 C.ar    1  UNL1        0.0398
     23 C         140.0032  145.0759  164.2165 C.ar    1  UNL1        0.0328
     24 C         138.7931  144.7325  165.0336 C.ar    1  UNL1        0.1403
     25 F         138.7366  145.1081  166.4847 F       1  UNL1       -0.2042
     26 C         137.6394  144.0134  164.3995 C.ar    1  UNL1        0.0328
     27 C         137.6959  143.6378  162.9484 C.ar    1  UNL1        0.0398
@<TRIPOS>BOND
     1     7     8    2
     2     8     1    1
     3     1     2   ar
     4     2     3   ar
     5     3     4   ar
     6     4    20    1
     7    20    21    1
     8    21    22   ar
     9    22    23   ar
    10    23    24   ar
    11    24    25    1
    12    24    26   ar
    13    26    27   ar
    14     4     5   ar
    15     5     6   ar
    16     8     9   am
    17     9    10    1
    18    10    11    1
    19    11    12    1
    20    12    13    1
    21    13    16    1
    22    16    17    1
    23    17    18    1
    24    18    19    1
    25    13    14    1
    26    14    15    1
    27     6     1   ar
    28    15     9    1
    29    27    21   ar
    30    19    16    1
@<TRIPOS>MOLECULE
*****
 27 30 0 0 0
SMALL
GASTEIGER

@<TRIPOS>ATOM
      1 C         140.8265  138.2707  161.7602 C.ar    1  UNL1        0.1349
      2 C         140.3069  138.9682  160.5381 C.ar    1  UNL1        0.0269
      3 C         141.1260  138.9898  159.2816 C.ar    1  UNL1        0.0408
      4 C         142.4646  138.3139  159.2472 C.ar    1  UNL1        0.1644
      5 C         142.9842  137.6163  160.4693 C.ar    1  UNL1        0.1363
      6 N         142.1652  137.5947  161.7257 N.ar    1  UNL1       -0.2361
      7 O         138.8799  137.2704  163.1601 O.2     1  UNL1       -0.2683
      8 C         140.0076  138.2490  163.0166 C.2     1  UNL1        0.2668
      9 N         140.3162  139.2060  164.1297 N.am    1  UNL1       -0.2734
     10 C         141.4629  140.1416  163.8843 C.3     1  UNL1        0.0952
     11 C         142.0139  141.2032  164.7896 C.3     1  UNL1        0.0388
     12 C         141.5546  141.5913  166.1637 C.3     1  UNL1        0.0739
     13 N         140.4307  141.0138  166.9720 N.3     1  UNL1       -0.2725
     14 C         139.4885  139.9056  166.6058 C.3     1  UNL1        0.0938
     15 C         139.4377  139.1010  165.3408 C.3     1  UNL1        0.1110
     16 C         140.2212  141.6255  168.3255 C.3     1  UNL1        0.0576
     17 C         139.5800  141.1760  169.6049 C.3     1  UNL1        0.0160
     18 C         139.9249  142.4906  170.2396 C.3     1  UNL1        0.0028
     19 C         140.5660  142.9402  168.9603 C.3     1  UNL1        0.0160
     20 O         143.2836  138.3355  157.9907 O.3     1  UNL1       -0.4519
     21 C         143.0251  137.3284  156.9095 C.ar    1  UNL1        0.1455
     22 C         142.9246  135.8712  157.2504 C.ar    1  UNL1        0.0398
     23 C         142.6661  134.8641  156.1692 C.ar    1  UNL1        0.0328
     24 C         142.5081  135.3143  154.7471 C.ar    1  UNL1        0.1403
     25 F         142.2496  134.3073  153.6659 F       1  UNL1       -0.2042
     26 C         142.6086  136.7717  154.4063 C.ar    1  UNL1        0.0328
     27 C         142.8671  137.7787  155.4875 C.ar    1  UNL1        0.0398
@<TRIPOS>BOND
     1     7     8    2
     2     8     1    1
     3     1     2   ar
     4     2     3   ar
     5     3     4   ar
     6     4    20    1
     7    20    21    1
     8    21    22   ar
     9    22    23   ar
    10    23    24   ar
    11    24    25    1
    12    24    26   ar
    13    26    27   ar
    14     4     5   ar
    15     5     6   ar
    16     8     9   am
    17     9    10    1
    18    10    11    1
    19    11    12    1
    20    12    13    1
    21    13    16    1
    22    16    17    1
    23    17    18    1
    24    18    19    1
    25    13    14    1
    26    14    15    1
    27     6     1   ar
    28    15     9    1
    29    27    21   ar
    30    19    16    1
@<TRIPOS>MOLECULE
*****
 27 30 0 0 0
SMALL
GASTEIGER

@<TRIPOS>ATOM
      1 C         138.4662  140.7582  160.8219 C.ar    1  UNL1        0.1349
      2 C         139.6716  139.9566  161.2146 C.ar    1  UNL1        0.0269
      3 C         139.8954  139.5945  162.6529 C.ar    1  UNL1        0.0408
      4 C         138.9139  140.0340  163.6985 C.ar    1  UNL1        0.1644
      5 C         137.7085  140.8357  163.3058 C.ar    1  UNL1        0.1363
      6 N         137.4846  141.1978  161.8675 N.ar    1  UNL1       -0.2361
      7 O         137.4774  140.1926  158.4869 O.2     1  UNL1       -0.2683
      8 C         138.2423  141.1203  159.3836 C.2     1  UNL1        0.2668
      9 N         138.7832  142.4103  158.8420 N.am    1  UNL1       -0.2734
     10 C         139.5323  143.2643  159.8217 C.3     1  UNL1        0.0952
     11 C         140.1868  144.5946  159.5937 C.3     1  UNL1        0.0388
     12 C         140.2538  145.3995  158.3298 C.3     1  UNL1        0.0739
     13 N         139.6830  145.0730  156.9816 N.3     1  UNL1       -0.2725
     14 C         138.9041  143.8608  156.5644 C.3     1  UNL1        0.0938
     15 C         138.5037  142.6758  157.3925 C.3     1  UNL1        0.1110
     16 C         139.9227  146.0935  155.9088 C.3     1  UNL1        0.0576
     17 C         139.3229  147.4223  155.5558 C.3     1  UNL1        0.0160
     18 C         140.2617  147.5368  154.3915 C.3     1  UNL1        0.0028
     19 C         140.8615  146.2080  154.7444 C.3     1  UNL1        0.0160
     20 O         139.1378  139.6718  165.1369 O.3     1  UNL1       -0.4519
     21 C         140.2236  140.3481  165.9203 C.ar    1  UNL1        0.1455
     22 C         140.0578  141.7741  166.3550 C.ar    1  UNL1        0.0398
     23 C         141.1437  142.4503  167.1384 C.ar    1  UNL1        0.0328
     24 C         142.3951  141.7005  167.4871 C.ar    1  UNL1        0.1403
     25 F         143.4809  142.3768  168.2706 F       1  UNL1       -0.2042
     26 C         142.5607  140.2745  167.0524 C.ar    1  UNL1        0.0328
     27 C         141.4750  139.5983  166.2690 C.ar    1  UNL1        0.0398
@<TRIPOS>BOND
     1     7     8    2
     2     8     1    1
     3     1     2   ar
     4     2     3   ar
     5     3     4   ar
     6     4    20    1
     7    20    21    1
     8    21    22   ar
     9    22    23   ar
    10    23    24   ar
    11    24    25    1
    12    24    26   ar
    13    26    27   ar
    14     4     5   ar
    15     5     6   ar
    16     8     9   am
    17     9    10    1
    18    10    11    1
    19    11    12    1
    20    12    13    1
    21    13    16    1
    22    16    17    1
    23    17    18    1
    24    18    19    1
    25    13    14    1
    26    14    15    1
    27     6     1   ar
    28    15     9    1
    29    27    21   ar
    30    19    16    1
