@<TRIPOS>MOLECULE
*****
 35 40 0 0 0
SMALL
GASTEIGER

@<TRIPOS>ATOM
      1 C         142.0623  139.9886  160.6751 C.3     1  UNL1        0.1161
      2 C         142.5090  139.3624  161.9629 C.3     1  UNL1        0.0510
      3 C         142.2052  140.0349  163.2688 C.2     1  UNL1       -0.0044
      4 C         141.4548  141.3336  163.2870 C.2     1  UNL1        0.0689
      5 N         141.3014  141.7603  164.7168 N.2     1  UNL1       -0.2526
      6 C         141.9569  140.7253  165.5823 C.2     1  UNL1        0.0627
      7 C         142.1174  140.6162  167.0697 C.3     1  UNL1        0.0717
      8 C         142.8364  139.4406  167.6621 C.2     1  UNL1       -0.0198
      9 C         143.3951  138.3743  166.7672 C.2     1  UNL1       -0.0042
     10 C         143.2346  138.4834  165.2799 C.2     1  UNL1        0.0006
     11 C         142.5155  139.6590  164.6874 C.2     1  UNL1        0.0111
     12 C         141.0082  141.9598  161.9991 C.3     1  UNL1        0.0949
     13 N         141.3119  141.2873  160.6932 N.3     1  UNL1       -0.2887
     14 H         141.8563  141.9496  160.1406 H       1  UNL1        0.1239
     15 C         142.5228  137.6476  157.6135 C.ar    1  UNL1        0.0769
     16 C         143.1444  138.9147  157.1056 C.ar    1  UNL1        0.1171
     17 N         143.0477  139.9459  158.1906 N.ar    1  UNL1       -0.2282
     18 C         142.3662  139.3161  159.3691 C.ar    1  UNL1        0.1318
     19 N         142.0417  137.8957  159.0125 N.ar    1  UNL1       -0.3397
     20 H         141.5921  137.2412  159.5944 H       1  UNL1        0.1671
     21 C         143.2428  133.9490  156.3680 C.ar    1  UNL1        0.0140
     22 C         142.1637  133.7810  155.3397 C.ar    1  UNL1        0.0011
     23 C         141.2043  134.9019  155.0693 C.ar    1  UNL1        0.0001
     24 C         141.3240  136.1908  155.8273 C.ar    1  UNL1        0.0015
     25 C         142.4031  136.3587  156.8556 C.ar    1  UNL1        0.0172
     26 C         143.3625  135.2378  157.1259 C.ar    1  UNL1        0.0026
     27 O         144.4312  131.7700  155.5999 O.co2   1  UNL1       -0.5446
     28 C         144.2022  132.8280  156.6383 C.2     1  UNL1        0.0729
     29 O         144.9324  132.7650  157.9470 O.co2   1  UNL1       -0.5446
     30 C         140.2578  143.2584  162.0173 C.3     1  UNL1        0.0252
     31 C         138.9207  143.3427  162.6918 C.3     1  UNL1        0.0339
     32 C         138.1703  144.6414  162.7099 C.3     1  UNL1        0.1422
     33 O         138.7570  145.8558  162.0534 O.3     1  UNL1       -0.3538
     34 C         140.0942  145.7716  161.3789 C.3     1  UNL1        0.1422
     35 C         140.8445  144.4729  161.3608 C.3     1  UNL1        0.0339
@<TRIPOS>UNITY_ATOM_ATTR
27 1
charge -1
@<TRIPOS>BOND
     1    27    28   ar
     2    28    29   ar
     3    28    21    1
     4    21    22   ar
     5    22    23   ar
     6    23    24   ar
     7    24    25   ar
     8    25    15    1
     9    15    16   ar
    10    16    17   ar
    11    17    18   ar
    12     1    18    1
    13     1     2    1
    14     2     3    1
    15     3     4    2
    16     4     5    1
    17     5     6    2
    18     6     7    1
    19     7     8    1
    20     8     9    2
    21     9    10    1
    22    10    11    2
    23     4    12    1
    24    12    30    1
    25    30    31    1
    26    31    32    1
    27    32    33    1
    28    33    34    1
    29    34    35    1
    30    12    13    1
    31    18    19   ar
    32    25    26   ar
    33    26    21   ar
    34    19    15   ar
    35    13     1    1
    36    11     3    1
    37    35    30    1
    38    11     6    1
    39    13    14    1
    40    19    20    1
@<TRIPOS>MOLECULE
*****
 35 40 0 0 0
SMALL
GASTEIGER

@<TRIPOS>ATOM
      1 C         140.7076  144.1540  160.3280 C.3     1  UNL1        0.1161
      2 C         140.1342  145.2155  159.4367 C.3     1  UNL1        0.0510
      3 C         140.5549  145.2956  157.9992 C.2     1  UNL1       -0.0044
      4 C         141.5490  144.3141  157.4529 C.2     1  UNL1        0.0689
      5 N         141.7723  144.6376  156.0054 N.2     1  UNL1       -0.2526
      6 C         140.9163  145.8191  155.6570 C.2     1  UNL1        0.0627
      7 C         140.7248  146.5772  154.3770 C.3     1  UNL1        0.0717
      8 C         139.7808  147.7419  154.3292 C.2     1  UNL1       -0.0198
      9 C         139.0284  148.1486  155.5615 C.2     1  UNL1       -0.0042
     10 C         139.2200  147.3905  156.8415 C.2     1  UNL1        0.0006
     11 C         140.1639  146.2258  156.8893 C.2     1  UNL1        0.0111
     12 C         142.1223  143.2525  158.3442 C.3     1  UNL1        0.0949
     13 N         141.7016  143.1724  159.7817 N.3     1  UNL1       -0.2887
     14 H         142.5485  143.2682  160.3421 H       1  UNL1        0.1239
     15 C         139.8704  143.2378  164.0057 C.ar    1  UNL1        0.0769
     16 C         139.4084  144.6637  163.9499 C.ar    1  UNL1        0.1171
     17 N         139.6657  145.1805  162.5654 N.ar    1  UNL1       -0.2282
     18 C         140.2868  144.0739  161.7656 C.ar    1  UNL1        0.1318
     19 N         140.4134  142.8732  162.6557 N.ar    1  UNL1       -0.3397
     20 H         140.7871  141.9994  162.3990 H       1  UNL1        0.1671
     21 C         139.0282  140.1113  166.3004 C.ar    1  UNL1        0.0140
     22 C         139.6642  140.5290  167.5931 C.ar    1  UNL1        0.0011
     23 C         140.3689  141.8495  167.6900 C.ar    1  UNL1        0.0001
     24 C         140.4377  142.7524  166.4942 C.ar    1  UNL1        0.0015
     25 C         139.8017  142.3348  165.2015 C.ar    1  UNL1        0.0172
     26 C         139.0969  141.0142  165.1046 C.ar    1  UNL1        0.0026
     27 O         137.2427  138.4436  167.1842 O.co2   1  UNL1       -0.5446
     28 C         138.3234  138.7907  166.2036 C.2     1  UNL1        0.0729
     29 O         138.6993  137.8172  165.1261 O.co2   1  UNL1       -0.5446
     30 C         143.1164  142.2709  157.7979 C.3     1  UNL1        0.0252
     31 C         142.6668  140.9028  157.3786 C.3     1  UNL1        0.0339
     32 C         143.6609  139.9213  156.8323 C.3     1  UNL1        0.1422
     33 O         145.1046  140.3080  156.7053 O.3     1  UNL1       -0.3538
     34 C         145.5543  141.6762  157.1247 C.3     1  UNL1        0.1422
     35 C         144.5602  142.6576  157.6710 C.3     1  UNL1        0.0339
@<TRIPOS>UNITY_ATOM_ATTR
27 1
charge -1
@<TRIPOS>BOND
     1    27    28   ar
     2    28    29   ar
     3    28    21    1
     4    21    22   ar
     5    22    23   ar
     6    23    24   ar
     7    24    25   ar
     8    25    15    1
     9    15    16   ar
    10    16    17   ar
    11    17    18   ar
    12     1    18    1
    13     1     2    1
    14     2     3    1
    15     3     4    2
    16     4     5    1
    17     5     6    2
    18     6     7    1
    19     7     8    1
    20     8     9    2
    21     9    10    1
    22    10    11    2
    23     4    12    1
    24    12    30    1
    25    30    31    1
    26    31    32    1
    27    32    33    1
    28    33    34    1
    29    34    35    1
    30    12    13    1
    31    18    19   ar
    32    25    26   ar
    33    26    21   ar
    34    19    15   ar
    35    13     1    1
    36    11     3    1
    37    35    30    1
    38    11     6    1
    39    13    14    1
    40    19    20    1
@<TRIPOS>MOLECULE
*****
 35 40 0 0 0
SMALL
GASTEIGER

@<TRIPOS>ATOM
      1 C         140.1082  136.7991  155.2727 C.3     1  UNL1        0.1161
      2 C         140.6635  135.4511  154.9199 C.3     1  UNL1        0.0510
      3 C         141.8836  134.9349  155.6235 C.2     1  UNL1       -0.0044
      4 C         142.5482  135.7669  156.6800 C.2     1  UNL1        0.0689
      5 N         143.7285  135.0003  157.1991 N.2     1  UNL1       -0.2526
      6 C         143.7932  133.6947  156.4634 C.2     1  UNL1        0.0627
      7 C         144.7431  132.5374  156.5545 C.3     1  UNL1        0.0717
      8 C         144.5528  131.3397  155.6717 C.2     1  UNL1       -0.0198
      9 C         143.4126  131.2993  154.6980 C.2     1  UNL1       -0.0042
     10 C         142.4626  132.4566  154.6070 C.2     1  UNL1        0.0006
     11 C         142.6530  133.6543  155.4897 C.2     1  UNL1        0.0111
     12 C         141.9929  137.1149  157.0328 C.3     1  UNL1        0.0949
     13 N         140.7728  137.6310  156.3292 N.3     1  UNL1       -0.2887
     14 H         141.0380  138.5112  155.8873 H       1  UNL1        0.1239
     15 C         136.8673  138.5620  154.0669 C.ar    1  UNL1        0.0769
     16 C         137.1540  137.6567  152.9057 C.ar    1  UNL1        0.1171
     17 N         138.4029  136.8862  153.2161 N.ar    1  UNL1       -0.2282
     18 C         138.8881  137.3152  154.5690 C.ar    1  UNL1        0.1318
     19 N         137.9390  138.3509  155.0949 N.ar    1  UNL1       -0.3397
     20 H         138.0075  138.8113  155.9624 H       1  UNL1        0.1671
     21 C         133.5938  140.3385  155.4374 C.ar    1  UNL1        0.0140
     22 C         133.4006  141.4110  154.4066 C.ar    1  UNL1        0.0011
     23 C         134.3630  141.5338  153.2627 C.ar    1  UNL1        0.0001
     24 C         135.5185  140.5842  153.1494 C.ar    1  UNL1        0.0015
     25 C         135.7117  139.5117  154.1801 C.ar    1  UNL1        0.0172
     26 C         134.7493  139.3888  155.3241 C.ar    1  UNL1        0.0026
     27 O         133.1164  139.7524  157.9231 O.co2   1  UNL1       -0.5446
     28 C         132.6313  140.2156  156.5814 C.2     1  UNL1        0.0729
     29 O         131.1839  140.5560  156.3836 O.co2   1  UNL1       -0.5446
     30 C         142.6576  137.9468  158.0893 C.3     1  UNL1        0.0252
     31 C         142.7940  137.4167  159.4857 C.3     1  UNL1        0.0339
     32 C         143.4587  138.2487  160.5422 C.3     1  UNL1        0.1422
     33 O         143.9870  139.6107  160.2021 O.3     1  UNL1       -0.3538
     34 C         143.8505  140.1409  158.8055 C.3     1  UNL1        0.1422
     35 C         143.1859  139.3089  157.7492 C.3     1  UNL1        0.0339
@<TRIPOS>UNITY_ATOM_ATTR
27 1
charge -1
@<TRIPOS>BOND
     1    27    28   ar
     2    28    29   ar
     3    28    21    1
     4    21    22   ar
     5    22    23   ar
     6    23    24   ar
     7    24    25   ar
     8    25    15    1
     9    15    16   ar
    10    16    17   ar
    11    17    18   ar
    12     1    18    1
    13     1     2    1
    14     2     3    1
    15     3     4    2
    16     4     5    1
    17     5     6    2
    18     6     7    1
    19     7     8    1
    20     8     9    2
    21     9    10    1
    22    10    11    2
    23     4    12    1
    24    12    30    1
    25    30    31    1
    26    31    32    1
    27    32    33    1
    28    33    34    1
    29    34    35    1
    30    12    13    1
    31    18    19   ar
    32    25    26   ar
    33    26    21   ar
    34    19    15   ar
    35    13     1    1
    36    11     3    1
    37    35    30    1
    38    11     6    1
    39    13    14    1
    40    19    20    1
@<TRIPOS>MOLECULE
*****
 35 40 0 0 0
SMALL
GASTEIGER

@<TRIPOS>ATOM
      1 C         140.4983  144.0778  160.1868 C.3     1  UNL1        0.1161
      2 C         139.9829  145.1490  159.2720 C.3     1  UNL1        0.0510
      3 C         140.4913  145.2413  157.8638 C.2     1  UNL1       -0.0044
      4 C         141.5151  144.2623  157.3704 C.2     1  UNL1        0.0689
      5 N         141.8276  144.5987  155.9424 N.2     1  UNL1       -0.2526
      6 C         140.9970  145.7855  155.5532 C.2     1  UNL1        0.0627
      7 C         140.8859  146.5558  154.2710 C.3     1  UNL1        0.0717
      8 C         139.9490  147.7233  154.1762 C.2     1  UNL1       -0.0198
      9 C         139.1230  148.1205  155.3637 C.2     1  UNL1       -0.0042
     10 C         139.2341  147.3501  156.6459 C.2     1  UNL1        0.0006
     11 C         140.1710  146.1826  156.7407 C.2     1  UNL1        0.0111
     12 C         142.0306  143.1911  158.2853 C.3     1  UNL1        0.0949
     13 N         141.5222  143.0989  159.6934 N.3     1  UNL1       -0.2887
     14 H         142.3332  143.1873  160.3057 H       1  UNL1        0.1239
     15 C         139.6518  143.2517  163.8836 C.ar    1  UNL1        0.0769
     16 C         138.7633  144.4355  163.6404 C.ar    1  UNL1        0.1171
     17 N         138.9723  144.8891  162.2260 N.ar    1  UNL1       -0.2282
     18 C         139.9899  143.9856  161.5950 C.ar    1  UNL1        0.1318
     19 N         140.4099  142.9736  162.6195 N.ar    1  UNL1       -0.3397
     20 H         141.0676  142.2534  162.4857 H       1  UNL1        0.1671
     21 C         140.3800  142.3865  167.6877 C.ar    1  UNL1        0.0140
     22 C         139.9846  140.9402  167.7301 C.ar    1  UNL1        0.0011
     23 C         139.4783  140.2644  166.4905 C.ar    1  UNL1        0.0001
     24 C         139.3674  141.0349  165.2083 C.ar    1  UNL1        0.0015
     25 C         139.7627  142.4812  165.1658 C.ar    1  UNL1        0.0172
     26 C         140.2690  143.1570  166.4055 C.ar    1  UNL1        0.0026
     27 O         142.2209  142.6823  169.4970 O.co2   1  UNL1       -0.5446
     28 C         140.8863  143.0623  168.9275 C.2     1  UNL1        0.0729
     29 O         140.0580  144.1181  169.5977 O.co2   1  UNL1       -0.5446
     30 C         143.0544  142.2122  157.7919 C.3     1  UNL1        0.0252
     31 C         142.6375  140.8272  157.3946 C.3     1  UNL1        0.0339
     32 C         143.6614  139.8483  156.9013 C.3     1  UNL1        0.1422
     33 O         145.1022  140.2544  156.8052 O.3     1  UNL1       -0.3538
     34 C         145.5191  141.6394  157.2025 C.3     1  UNL1        0.1422
     35 C         144.4953  142.6183  157.6959 C.3     1  UNL1        0.0339
@<TRIPOS>UNITY_ATOM_ATTR
27 1
charge -1
@<TRIPOS>BOND
     1    27    28   ar
     2    28    29   ar
     3    28    21    1
     4    21    22   ar
     5    22    23   ar
     6    23    24   ar
     7    24    25   ar
     8    25    15    1
     9    15    16   ar
    10    16    17   ar
    11    17    18   ar
    12     1    18    1
    13     1     2    1
    14     2     3    1
    15     3     4    2
    16     4     5    1
    17     5     6    2
    18     6     7    1
    19     7     8    1
    20     8     9    2
    21     9    10    1
    22    10    11    2
    23     4    12    1
    24    12    30    1
    25    30    31    1
    26    31    32    1
    27    32    33    1
    28    33    34    1
    29    34    35    1
    30    12    13    1
    31    18    19   ar
    32    25    26   ar
    33    26    21   ar
    34    19    15   ar
    35    13     1    1
    36    11     3    1
    37    35    30    1
    38    11     6    1
    39    13    14    1
    40    19    20    1
@<TRIPOS>MOLECULE
*****
 35 40 0 0 0
SMALL
GASTEIGER

@<TRIPOS>ATOM
      1 C         143.4115  140.2074  158.0512 C.3     1  UNL1        0.1161
      2 C         143.9492  140.1954  159.4515 C.3     1  UNL1        0.0510
      3 C         143.8220  141.4159  160.3141 C.2     1  UNL1       -0.0044
      4 C         143.1573  142.6484  159.7765 C.2     1  UNL1        0.0689
      5 N         143.1772  143.6928  160.8529 N.2     1  UNL1       -0.2526
      6 C         143.8543  143.1059  162.0558 C.2     1  UNL1        0.0627
      7 C         144.1595  143.6710  163.4114 C.3     1  UNL1        0.0717
      8 C         144.8631  142.8288  164.4339 C.2     1  UNL1       -0.0198
      9 C         145.2616  141.4216  164.1009 C.2     1  UNL1       -0.0042
     10 C         144.9565  140.8565  162.7454 C.2     1  UNL1        0.0006
     11 C         144.2528  141.6986  161.7229 C.2     1  UNL1        0.0111
     12 C         142.6197  142.6604  158.3761 C.3     1  UNL1        0.0949
     13 N         142.7468  141.4399  157.5135 N.3     1  UNL1       -0.2887
     14 H         143.2706  141.7189  156.6839 H       1  UNL1        0.1239
     15 C         143.3413  136.7132  156.3627 C.ar    1  UNL1        0.0769
     16 C         144.1274  137.5041  155.3595 C.ar    1  UNL1        0.1171
     17 N         144.2494  138.9093  155.8699 N.ar    1  UNL1       -0.2282
     18 C         143.5387  138.9868  157.1885 C.ar    1  UNL1        0.1318
     19 N         142.9774  137.6296  157.4931 N.ar    1  UNL1       -0.3397
     20 H         142.4609  137.3835  158.2943 H       1  UNL1        0.1671
     21 C         143.4533  132.7761  156.8493 C.ar    1  UNL1        0.0140
     22 C         142.2635  132.3562  156.0382 C.ar    1  UNL1        0.0011
     23 C         141.4329  133.3887  155.3352 C.ar    1  UNL1        0.0001
     24 C         141.7922  134.8409  155.4434 C.ar    1  UNL1        0.0015
     25 C         142.9820  135.2608  156.2546 C.ar    1  UNL1        0.0172
     26 C         143.8126  134.2284  156.9575 C.ar    1  UNL1        0.0026
     27 O         143.7598  130.3485  157.7229 O.co2   1  UNL1       -0.5446
     28 C         144.2839  131.7436  157.5523 C.2     1  UNL1        0.0729
     29 O         145.6386  132.1062  158.0847 O.co2   1  UNL1       -0.5446
     30 C         141.9549  143.8929  157.8385 C.3     1  UNL1        0.0252
     31 C         140.8708  144.5651  158.6275 C.3     1  UNL1        0.0339
     32 C         140.2061  145.7977  158.0898 C.3     1  UNL1        0.1422
     33 O         140.6255  146.3578  156.7630 O.3     1  UNL1       -0.3538
     34 C         141.7097  145.6855  155.9740 C.3     1  UNL1        0.1422
     35 C         142.3743  144.4531  156.5117 C.3     1  UNL1        0.0339
@<TRIPOS>UNITY_ATOM_ATTR
27 1
charge -1
@<TRIPOS>BOND
     1    27    28   ar
     2    28    29   ar
     3    28    21    1
     4    21    22   ar
     5    22    23   ar
     6    23    24   ar
     7    24    25   ar
     8    25    15    1
     9    15    16   ar
    10    16    17   ar
    11    17    18   ar
    12     1    18    1
    13     1     2    1
    14     2     3    1
    15     3     4    2
    16     4     5    1
    17     5     6    2
    18     6     7    1
    19     7     8    1
    20     8     9    2
    21     9    10    1
    22    10    11    2
    23     4    12    1
    24    12    30    1
    25    30    31    1
    26    31    32    1
    27    32    33    1
    28    33    34    1
    29    34    35    1
    30    12    13    1
    31    18    19   ar
    32    25    26   ar
    33    26    21   ar
    34    19    15   ar
    35    13     1    1
    36    11     3    1
    37    35    30    1
    38    11     6    1
    39    13    14    1
    40    19    20    1
@<TRIPOS>MOLECULE
*****
 35 40 0 0 0
SMALL
GASTEIGER

@<TRIPOS>ATOM
      1 C         143.5857  142.0912  160.2954 C.3     1  UNL1        0.1161
      2 C         144.7720  142.3259  159.4078 C.3     1  UNL1        0.0510
      3 C         144.7651  141.8173  157.9967 C.2     1  UNL1       -0.0044
      4 C         143.5720  141.0740  157.4732 C.2     1  UNL1        0.0689
      5 N         143.8510  140.6939  156.0492 N.2     1  UNL1       -0.2526
      6 C         145.2164  141.2023  155.6926 C.2     1  UNL1        0.0627
      7 C         146.0183  141.1227  154.4275 C.3     1  UNL1        0.0717
      8 C         147.3851  141.7374  154.3659 C.2     1  UNL1       -0.0198
      9 C         147.9501  142.4317  155.5696 C.2     1  UNL1       -0.0042
     10 C         147.1482  142.5113  156.8347 C.2     1  UNL1        0.0006
     11 C         145.7814  141.8966  156.8962 C.2     1  UNL1        0.0111
     12 C         142.3858  140.8393  158.3608 C.3     1  UNL1        0.0949
     13 N         142.3927  141.3479  159.7719 N.3     1  UNL1       -0.2887
     14 H         142.2615  140.5377  160.3775 H       1  UNL1        0.1239
     15 C         143.0578  142.8990  164.0549 C.ar    1  UNL1        0.0769
     16 C         144.1486  143.8659  163.7011 C.ar    1  UNL1        0.1171
     17 N         144.4791  143.6810  162.2497 N.ar    1  UNL1       -0.2282
     18 C         143.5926  142.5998  161.7065 C.ar    1  UNL1        0.1318
     19 N         142.7142  142.1165  162.8222 N.ar    1  UNL1       -0.3397
     20 H         142.0319  141.4098  162.7568 H       1  UNL1        0.1671
     21 C         142.6311  142.2446  167.9459 C.ar    1  UNL1        0.0140
     22 C         141.1508  142.4283  168.1036 C.ar    1  UNL1        0.0011
     23 C         140.3061  142.7690  166.9118 C.ar    1  UNL1        0.0001
     24 C         140.9418  142.9259  165.5622 C.ar    1  UNL1        0.0015
     25 C         142.4221  142.7421  165.4045 C.ar    1  UNL1        0.0172
     26 C         143.2668  142.4015  166.5963 C.ar    1  UNL1        0.0026
     27 O         143.2884  140.5913  169.8392 O.co2   1  UNL1       -0.5446
     28 C         143.4758  141.9039  169.1378 C.2     1  UNL1        0.0729
     29 O         144.5077  142.8758  169.6281 O.co2   1  UNL1       -0.5446
     30 C         141.1927  140.0960  157.8373 C.3     1  UNL1        0.0252
     31 C         141.2348  138.6017  157.7141 C.3     1  UNL1        0.0339
     32 C         140.0417  137.8584  157.1905 C.3     1  UNL1        0.1422
     33 O         138.8065  138.6095  156.7902 O.3     1  UNL1       -0.3538
     34 C         138.7644  140.1038  156.9134 C.3     1  UNL1        0.1422
     35 C         139.9575  140.8470  157.4369 C.3     1  UNL1        0.0339
@<TRIPOS>UNITY_ATOM_ATTR
27 1
charge -1
@<TRIPOS>BOND
     1    27    28   ar
     2    28    29   ar
     3    28    21    1
     4    21    22   ar
     5    22    23   ar
     6    23    24   ar
     7    24    25   ar
     8    25    15    1
     9    15    16   ar
    10    16    17   ar
    11    17    18   ar
    12     1    18    1
    13     1     2    1
    14     2     3    1
    15     3     4    2
    16     4     5    1
    17     5     6    2
    18     6     7    1
    19     7     8    1
    20     8     9    2
    21     9    10    1
    22    10    11    2
    23     4    12    1
    24    12    30    1
    25    30    31    1
    26    31    32    1
    27    32    33    1
    28    33    34    1
    29    34    35    1
    30    12    13    1
    31    18    19   ar
    32    25    26   ar
    33    26    21   ar
    34    19    15   ar
    35    13     1    1
    36    11     3    1
    37    35    30    1
    38    11     6    1
    39    13    14    1
    40    19    20    1
@<TRIPOS>MOLECULE
*****
 35 40 0 0 0
SMALL
GASTEIGER

@<TRIPOS>ATOM
      1 C         139.4822  139.5782  159.5218 C.3     1  UNL1        0.1161
      2 C         139.2563  138.7642  160.7613 C.3     1  UNL1        0.0510
      3 C         139.1116  139.4454  162.0899 C.2     1  UNL1       -0.0044
      4 C         139.1928  140.9405  162.1789 C.2     1  UNL1        0.0689
      5 N         139.0144  141.3295  163.6165 N.2     1  UNL1       -0.2526
      6 C         138.8230  140.0749  164.4160 C.2     1  UNL1        0.0627
      7 C         138.6017  139.8423  165.8812 C.3     1  UNL1        0.0717
      8 C         138.4405  138.4453  166.4029 C.2     1  UNL1       -0.0198
      9 C         138.5006  137.2807  165.4593 C.2     1  UNL1       -0.0042
     10 C         138.7219  137.5133  163.9941 C.2     1  UNL1        0.0006
     11 C         138.8830  138.9103  163.4724 C.2     1  UNL1        0.0111
     12 C         139.4187  141.7545  160.9394 C.3     1  UNL1        0.0949
     13 N         139.5634  141.0734  159.6108 N.3     1  UNL1       -0.2887
     14 H         140.4752  141.3413  159.2403 H       1  UNL1        0.1239
     15 C         140.3760  137.3988  156.4369 C.ar    1  UNL1        0.0769
     16 C         139.3233  138.2987  155.8608 C.ar    1  UNL1        0.1171
     17 N         138.8603  139.2247  156.9462 N.ar    1  UNL1       -0.2282
     18 C         139.6269  138.8970  158.1932 C.ar    1  UNL1        0.1318
     19 N         140.5637  137.7686  157.8784 N.ar    1  UNL1       -0.3397
     20 H         141.1915  137.3450  158.5075 H       1  UNL1        0.1671
     21 C         142.8200  134.3612  155.6956 C.ar    1  UNL1        0.0140
     22 C         142.5836  134.1587  154.2283 C.ar    1  UNL1        0.0011
     23 C         141.6114  135.0362  153.4971 C.ar    1  UNL1        0.0001
     24 C         140.8755  136.1162  154.2333 C.ar    1  UNL1        0.0015
     25 C         141.1119  136.3187  155.7007 C.ar    1  UNL1        0.0172
     26 C         142.0842  135.4412  156.4318 C.ar    1  UNL1        0.0026
     27 O         144.4370  132.3277  155.7208 O.co2   1  UNL1       -0.5446
     28 C         143.7924  133.4836  156.4268 C.2     1  UNL1        0.0729
     29 O         144.1200  133.7620  157.8638 O.co2   1  UNL1       -0.5446
     30 C         139.4999  143.2497  161.0284 C.3     1  UNL1        0.0252
     31 C         138.9038  143.9644  162.2047 C.3     1  UNL1        0.0339
     32 C         138.9851  145.4596  162.2937 C.3     1  UNL1        0.1422
     33 O         139.6623  146.2400  161.2063 O.3     1  UNL1       -0.3538
     34 C         140.2584  145.5252  160.0300 C.3     1  UNL1        0.1422
     35 C         140.1772  144.0301  159.9410 C.3     1  UNL1        0.0339
@<TRIPOS>UNITY_ATOM_ATTR
27 1
charge -1
@<TRIPOS>BOND
     1    27    28   ar
     2    28    29   ar
     3    28    21    1
     4    21    22   ar
     5    22    23   ar
     6    23    24   ar
     7    24    25   ar
     8    25    15    1
     9    15    16   ar
    10    16    17   ar
    11    17    18   ar
    12     1    18    1
    13     1     2    1
    14     2     3    1
    15     3     4    2
    16     4     5    1
    17     5     6    2
    18     6     7    1
    19     7     8    1
    20     8     9    2
    21     9    10    1
    22    10    11    2
    23     4    12    1
    24    12    30    1
    25    30    31    1
    26    31    32    1
    27    32    33    1
    28    33    34    1
    29    34    35    1
    30    12    13    1
    31    18    19   ar
    32    25    26   ar
    33    26    21   ar
    34    19    15   ar
    35    13     1    1
    36    11     3    1
    37    35    30    1
    38    11     6    1
    39    13    14    1
    40    19    20    1
@<TRIPOS>MOLECULE
*****
 35 40 0 0 0
SMALL
GASTEIGER

@<TRIPOS>ATOM
      1 C         143.1460  139.2926  158.0412 C.3     1  UNL1        0.1161
      2 C         142.3570  140.4695  157.5486 C.3     1  UNL1        0.0510
      3 C         142.1921  141.6794  158.4197 C.2     1  UNL1       -0.0044
      4 C         142.8161  141.7125  159.7834 C.2     1  UNL1        0.0689
      5 N         142.4852  143.0333  160.4126 N.2     1  UNL1       -0.2526
      6 C         141.6566  143.8165  159.4379 C.2     1  UNL1        0.0627
      7 C         141.0437  145.1835  159.5128 C.3     1  UNL1        0.0717
      8 C         140.2496  145.7137  158.3560 C.2     1  UNL1       -0.0198
      9 C         140.0685  144.8770  157.1243 C.2     1  UNL1       -0.0042
     10 C         140.6814  143.5100  157.0494 C.2     1  UNL1        0.0006
     11 C         141.4755  142.9797  158.2062 C.2     1  UNL1        0.0111
     12 C         143.6051  140.5356  160.2759 C.3     1  UNL1        0.0949
     13 N         143.7700  139.3257  159.4048 N.3     1  UNL1       -0.2887
     14 H         143.3869  138.5352  159.9232 H       1  UNL1        0.1239
     15 C         143.1210  135.8288  156.2900 C.ar    1  UNL1        0.0769
     16 C         144.0083  136.6127  155.3690 C.ar    1  UNL1        0.1171
     17 N         144.1257  138.0057  155.9129 N.ar    1  UNL1       -0.2282
     18 C         143.3109  138.0826  157.1700 C.ar    1  UNL1        0.1318
     19 N         142.6900  136.7373  157.4031 N.ar    1  UNL1       -0.3397
     20 H         142.1027  136.4933  158.1546 H       1  UNL1        0.1671
     21 C         143.0785  131.8840  156.7223 C.ar    1  UNL1        0.0140
     22 C         141.9565  131.5098  155.7997 C.ar    1  UNL1        0.0011
     23 C         141.2227  132.5752  155.0405 C.ar    1  UNL1        0.0001
     24 C         141.6109  134.0149  155.2040 C.ar    1  UNL1        0.0015
     25 C         142.7329  134.3891  156.1266 C.ar    1  UNL1        0.0172
     26 C         143.4667  133.3236  156.8857 C.ar    1  UNL1        0.0026
     27 O         145.1312  131.1294  158.1249 O.co2   1  UNL1       -0.5446
     28 C         143.8123  130.8185  157.4814 C.2     1  UNL1        0.0729
     29 O         143.2273  129.4422  157.5971 O.co2   1  UNL1       -0.5446
     30 C         144.2291  140.5687  161.6395 C.3     1  UNL1        0.0252
     31 C         144.0335  139.4183  162.5819 C.3     1  UNL1        0.0339
     32 C         144.6576  139.4514  163.9456 C.3     1  UNL1        0.1422
     33 O         145.4773  140.6349  164.3667 O.3     1  UNL1       -0.3538
     34 C         145.6729  141.7854  163.4243 C.3     1  UNL1        0.1422
     35 C         145.0489  141.7522  162.0607 C.3     1  UNL1        0.0339
@<TRIPOS>UNITY_ATOM_ATTR
27 1
charge -1
@<TRIPOS>BOND
     1    27    28   ar
     2    28    29   ar
     3    28    21    1
     4    21    22   ar
     5    22    23   ar
     6    23    24   ar
     7    24    25   ar
     8    25    15    1
     9    15    16   ar
    10    16    17   ar
    11    17    18   ar
    12     1    18    1
    13     1     2    1
    14     2     3    1
    15     3     4    2
    16     4     5    1
    17     5     6    2
    18     6     7    1
    19     7     8    1
    20     8     9    2
    21     9    10    1
    22    10    11    2
    23     4    12    1
    24    12    30    1
    25    30    31    1
    26    31    32    1
    27    32    33    1
    28    33    34    1
    29    34    35    1
    30    12    13    1
    31    18    19   ar
    32    25    26   ar
    33    26    21   ar
    34    19    15   ar
    35    13     1    1
    36    11     3    1
    37    35    30    1
    38    11     6    1
    39    13    14    1
    40    19    20    1
@<TRIPOS>MOLECULE
*****
 35 40 0 0 0
SMALL
GASTEIGER

@<TRIPOS>ATOM
      1 C         142.4974  137.2712  157.2092 C.3     1  UNL1        0.1161
      2 C         143.2312  135.9647  157.1417 C.3     1  UNL1        0.0510
      3 C         142.7950  134.9088  156.1698 C.2     1  UNL1       -0.0044
      4 C         141.6249  135.1593  155.2653 C.2     1  UNL1        0.0689
      5 N         141.4267  133.9395  154.4151 N.2     1  UNL1       -0.2526
      6 C         142.4743  132.9351  154.7941 C.2     1  UNL1        0.0627
      7 C         142.7675  131.5525  154.2919 C.3     1  UNL1        0.0717
      8 C         143.9062  130.7688  154.8741 C.2     1  UNL1       -0.0198
      9 C         144.7519  131.3678  155.9586 C.2     1  UNL1       -0.0042
     10 C         144.4587  132.7505  156.4608 C.2     1  UNL1        0.0006
     11 C         143.3199  133.5341  155.8786 C.2     1  UNL1        0.0111
     12 C         140.8910  136.4659  155.3328 C.3     1  UNL1        0.0949
     13 N         141.3273  137.5218  156.3047 N.3     1  UNL1       -0.2887
     14 H         140.5269  137.7173  156.9060 H       1  UNL1        0.1239
     15 C         143.5616  139.4547  160.2366 C.ar    1  UNL1        0.0769
     16 C         143.6485  140.4493  159.1171 C.ar    1  UNL1        0.1171
     17 N         143.2604  139.7524  157.8468 N.ar    1  UNL1       -0.2282
     18 C         142.9337  138.3272  158.1811 C.ar    1  UNL1        0.1318
     19 N         143.1199  138.1431  159.6581 N.ar    1  UNL1       -0.3397
     20 H         142.9772  137.3081  160.1597 H       1  UNL1        0.1671
     21 C         143.5168  139.1657  164.1944 C.ar    1  UNL1        0.0140
     22 C         144.4675  140.2636  164.5696 C.ar    1  UNL1        0.0011
     23 C         145.1162  141.0918  163.5005 C.ar    1  UNL1        0.0001
     24 C         144.8143  140.8222  162.0562 C.ar    1  UNL1        0.0015
     25 C         143.8636  139.7243  161.6810 C.ar    1  UNL1        0.0172
     26 C         143.2148  138.8960  162.7501 C.ar    1  UNL1        0.0026
     27 O         143.3798  138.3968  166.6723 O.co2   1  UNL1       -0.5446
     28 C         142.8680  138.3373  165.2636 C.2     1  UNL1        0.0729
     29 O         141.7076  137.4497  164.9240 O.co2   1  UNL1       -0.5446
     30 C         139.7209  136.7164  154.4283 C.3     1  UNL1        0.0252
     31 C         138.4648  137.3244  154.9780 C.3     1  UNL1        0.0339
     32 C         137.2947  137.5750  154.0734 C.3     1  UNL1        0.1422
     33 O         137.3808  137.2175  152.6192 O.3     1  UNL1       -0.3538
     34 C         138.6371  136.6095  152.0695 C.3     1  UNL1        0.1422
     35 C         139.8071  136.3590  152.9740 C.3     1  UNL1        0.0339
@<TRIPOS>UNITY_ATOM_ATTR
27 1
charge -1
@<TRIPOS>BOND
     1    27    28   ar
     2    28    29   ar
     3    28    21    1
     4    21    22   ar
     5    22    23   ar
     6    23    24   ar
     7    24    25   ar
     8    25    15    1
     9    15    16   ar
    10    16    17   ar
    11    17    18   ar
    12     1    18    1
    13     1     2    1
    14     2     3    1
    15     3     4    2
    16     4     5    1
    17     5     6    2
    18     6     7    1
    19     7     8    1
    20     8     9    2
    21     9    10    1
    22    10    11    2
    23     4    12    1
    24    12    30    1
    25    30    31    1
    26    31    32    1
    27    32    33    1
    28    33    34    1
    29    34    35    1
    30    12    13    1
    31    18    19   ar
    32    25    26   ar
    33    26    21   ar
    34    19    15   ar
    35    13     1    1
    36    11     3    1
    37    35    30    1
    38    11     6    1
    39    13    14    1
    40    19    20    1
