@<TRIPOS>MOLECULE
*****
 26 28 0 0 0
SMALL
GASTEIGER

@<TRIPOS>ATOM
      1 C         140.1304  145.0795  162.9665 C.ar    1  UNL1       -0.0208
      2 C         138.8103  144.7235  163.5832 C.ar    1  UNL1       -0.0042
      3 C         138.7640  143.8676  164.8142 C.ar    1  UNL1       -0.0003
      4 C         140.0379  143.3677  165.4284 C.ar    1  UNL1       -0.0000
      5 C         141.3580  143.7237  164.8117 C.ar    1  UNL1       -0.0003
      6 C         141.4043  144.5795  163.5808 C.ar    1  UNL1       -0.0042
      7 C         139.9915  142.5118  166.6595 C.ar    1  UNL1        0.0001
      8 C         140.3493  143.0968  167.9935 C.ar    1  UNL1        0.0014
      9 C         140.3029  142.2409  169.2246 C.ar    1  UNL1        0.0199
     10 C         139.8988  140.8000  169.1214 C.ar    1  UNL1        0.1217
     11 C         139.5411  140.2151  167.7873 C.ar    1  UNL1        0.0199
     12 C         139.5875  141.0710  166.5563 C.ar    1  UNL1        0.0014
     13 S         139.8525  139.9441  170.3524 S.O2    1  UNL1        0.0572
     14 N         139.8061  139.0882  171.5833 N.3     1  UNL1       -0.2035
     15 O         138.3536  139.9975  170.3330 O.2     1  UNL1       -0.1532
     16 O         141.3514  139.8908  170.3717 O.2     1  UNL1       -0.1532
     17 H         138.8346  138.9284  171.8499 H       1  UNL1        0.1442
     18 H         140.2943  139.5604  172.3443 H       1  UNL1        0.1442
     19 C         140.1768  145.9354  161.7355 C.3     1  UNL1        0.0437
     20 C         140.3756  145.3035  160.3897 C.3     1  UNL1        0.0768
     21 C         138.6389  142.5472  160.5812 C.3     1  UNL1        0.0173
     22 C         140.1219  142.6425  160.3768 C.3     1  UNL1        0.0576
     23 C         141.0669  141.4876  160.2245 C.3     1  UNL1        0.0174
     24 C         142.4493  142.0408  160.0424 C.3     1  UNL1        0.0187
     25 C         142.3585  143.5376  160.0821 C.3     1  UNL1        0.0721
     26 N         140.9201  143.9094  160.2888 N.3     1  UNL1       -0.2737
@<TRIPOS>BOND
     1    22    21    1
     2    22    23    1
     3    23    24    1
     4    24    25    1
     5    25    26    1
     6    26    20    1
     7    20    19    1
     8    19     1    1
     9     1     2   ar
    10     2     3   ar
    11     3     4   ar
    12     4     7    1
    13     7     8   ar
    14     8     9   ar
    15     9    10   ar
    16    10    13    1
    17    13    14    1
    18    13    15    2
    19    13    16    2
    20    10    11   ar
    21    11    12   ar
    22     4     5   ar
    23     5     6   ar
    24    26    22    1
    25     6     1   ar
    26    12     7   ar
    27    14    17    1
    28    14    18    1
@<TRIPOS>MOLECULE
*****
 26 28 0 0 0
SMALL
GASTEIGER

@<TRIPOS>ATOM
      1 C         138.1481  139.1966  162.5754 C.ar    1  UNL1       -0.0208
      2 C         137.8189  140.4250  163.3707 C.ar    1  UNL1       -0.0042
      3 C         138.4210  140.6219  164.7303 C.ar    1  UNL1       -0.0003
      4 C         139.3523  139.5903  165.2947 C.ar    1  UNL1       -0.0000
      5 C         139.6815  138.3618  164.4995 C.ar    1  UNL1       -0.0003
      6 C         139.0794  138.1650  163.1398 C.ar    1  UNL1       -0.0042
      7 C         139.9544  139.7872  166.6545 C.ar    1  UNL1        0.0001
      8 C         141.4452  139.8100  166.8184 C.ar    1  UNL1        0.0014
      9 C         142.0472  140.0069  168.1782 C.ar    1  UNL1        0.0199
     10 C         141.1584  140.1810  169.3739 C.ar    1  UNL1        0.1217
     11 C         139.6676  140.1582  169.2098 C.ar    1  UNL1        0.0199
     12 C         139.0656  139.9613  167.8502 C.ar    1  UNL1        0.0014
     13 S         141.7604  140.3779  170.7336 S.O2    1  UNL1        0.0572
     14 N         142.3625  140.5748  172.0932 N.3     1  UNL1       -0.2035
     15 O         140.3984  140.6574  171.2961 O.2     1  UNL1       -0.1532
     16 O         143.1225  140.0983  170.1710 O.2     1  UNL1       -0.1532
     17 H         141.6256  140.7987  172.7621 H       1  UNL1        0.1442
     18 H         143.0352  141.3407  172.0595 H       1  UNL1        0.1442
     19 C         137.5461  138.9997  161.2157 C.3     1  UNL1        0.0437
     20 C         138.1019  139.7393  160.0350 C.3     1  UNL1        0.0768
     21 C         141.3209  139.6950  160.5697 C.3     1  UNL1        0.0173
     22 C         140.4569  140.9186  160.4916 C.3     1  UNL1        0.0576
     23 C         140.9208  142.3368  160.6456 C.3     1  UNL1        0.0174
     24 C         139.7278  143.2336  160.4950 C.3     1  UNL1        0.0187
     25 C         138.5266  142.3697  160.2480 C.3     1  UNL1        0.0721
     26 N         138.9773  140.9390  160.2459 N.3     1  UNL1       -0.2737
@<TRIPOS>BOND
     1    22    21    1
     2    22    23    1
     3    23    24    1
     4    24    25    1
     5    25    26    1
     6    26    20    1
     7    20    19    1
     8    19     1    1
     9     1     2   ar
    10     2     3   ar
    11     3     4   ar
    12     4     7    1
    13     7     8   ar
    14     8     9   ar
    15     9    10   ar
    16    10    13    1
    17    13    14    1
    18    13    15    2
    19    13    16    2
    20    10    11   ar
    21    11    12   ar
    22     4     5   ar
    23     5     6   ar
    24    26    22    1
    25     6     1   ar
    26    12     7   ar
    27    14    17    1
    28    14    18    1
@<TRIPOS>MOLECULE
*****
 26 28 0 0 0
SMALL
GASTEIGER

@<TRIPOS>ATOM
      1 C         137.9514  139.8872  162.5027 C.ar    1  UNL1       -0.0208
      2 C         138.8730  138.9265  163.1938 C.ar    1  UNL1       -0.0042
      3 C         139.4253  139.2597  164.5480 C.ar    1  UNL1       -0.0003
      4 C         139.0561  140.5535  165.2111 C.ar    1  UNL1       -0.0000
      5 C         138.1345  141.5142  164.5200 C.ar    1  UNL1       -0.0003
      6 C         137.5821  141.1811  163.1658 C.ar    1  UNL1       -0.0042
      7 C         139.6085  140.8866  166.5653 C.ar    1  UNL1        0.0001
      8 C         140.3002  142.1982  166.7913 C.ar    1  UNL1        0.0014
      9 C         140.8526  142.5313  168.1456 C.ar    1  UNL1        0.0199
     10 C         140.7133  141.5527  169.2738 C.ar    1  UNL1        0.1217
     11 C         140.0216  140.2410  169.0478 C.ar    1  UNL1        0.0199
     12 C         139.4692  139.9080  167.6936 C.ar    1  UNL1        0.0014
     13 S         141.2657  141.8857  170.6280 S.O2    1  UNL1        0.0572
     14 N         141.8180  142.2187  171.9822 N.3     1  UNL1       -0.2035
     15 O         142.2282  142.8486  169.9986 O.2     1  UNL1       -0.1532
     16 O         140.3031  140.9228  171.2574 O.2     1  UNL1       -0.1532
     17 H         142.5604  142.9116  171.8856 H       1  UNL1        0.1442
     18 H         142.1950  141.3744  172.4127 H       1  UNL1        0.1442
     19 C         137.3989  139.5541  161.1484 C.3     1  UNL1        0.0437
     20 C         138.1783  139.9006  159.9146 C.3     1  UNL1        0.0768
     21 C         141.3391  140.1482  160.6874 C.3     1  UNL1        0.0173
     22 C         140.4532  141.2685  160.2294 C.3     1  UNL1        0.0576
     23 C         140.8645  142.6993  160.0462 C.3     1  UNL1        0.0174
     24 C         139.6658  143.4699  159.5776 C.3     1  UNL1        0.0187
     25 C         138.5136  142.5152  159.4713 C.3     1  UNL1        0.0721
     26 N         139.0003  141.1547  159.8741 N.3     1  UNL1       -0.2737
@<TRIPOS>BOND
     1    22    21    1
     2    22    23    1
     3    23    24    1
     4    24    25    1
     5    25    26    1
     6    26    20    1
     7    20    19    1
     8    19     1    1
     9     1     2   ar
    10     2     3   ar
    11     3     4   ar
    12     4     7    1
    13     7     8   ar
    14     8     9   ar
    15     9    10   ar
    16    10    13    1
    17    13    14    1
    18    13    15    2
    19    13    16    2
    20    10    11   ar
    21    11    12   ar
    22     4     5   ar
    23     5     6   ar
    24    26    22    1
    25     6     1   ar
    26    12     7   ar
    27    14    17    1
    28    14    18    1
@<TRIPOS>MOLECULE
*****
 26 28 0 0 0
SMALL
GASTEIGER

@<TRIPOS>ATOM
      1 C         137.8983  139.8779  162.4683 C.ar    1  UNL1       -0.0208
      2 C         138.7972  138.9029  163.1692 C.ar    1  UNL1       -0.0042
      3 C         139.3540  139.2349  164.5219 C.ar    1  UNL1       -0.0003
      4 C         139.0119  140.5419  165.1736 C.ar    1  UNL1       -0.0000
      5 C         138.1131  141.5169  164.4726 C.ar    1  UNL1       -0.0003
      6 C         137.5563  141.1849  163.1200 C.ar    1  UNL1       -0.0042
      7 C         139.5687  140.8739  166.5263 C.ar    1  UNL1        0.0001
      8 C         140.2727  142.1798  166.7477 C.ar    1  UNL1        0.0014
      9 C         140.8295  142.5117  168.1005 C.ar    1  UNL1        0.0199
     10 C         140.6824  141.5378  169.2317 C.ar    1  UNL1        0.1217
     11 C         139.9784  140.2318  169.0102 C.ar    1  UNL1        0.0199
     12 C         139.4216  139.8999  167.6576 C.ar    1  UNL1        0.0014
     13 S         141.2392  141.8697  170.5844 S.O2    1  UNL1        0.0572
     14 N         141.7959  142.2016  171.9371 N.3     1  UNL1       -0.2035
     15 O         140.3343  140.8484  171.2074 O.2     1  UNL1       -0.1532
     16 O         142.1440  142.8909  169.9613 O.2     1  UNL1       -0.1532
     17 H         141.3420  141.6221  172.6431 H       1  UNL1        0.1442
     18 H         141.6243  143.1857  172.1433 H       1  UNL1        0.1442
     19 C         137.3415  139.5460  161.1155 C.3     1  UNL1        0.0437
     20 C         138.0099  140.0714  159.8798 C.3     1  UNL1        0.0768
     21 C         140.6103  141.7417  160.9272 C.3     1  UNL1        0.0173
     22 C         140.6402  140.5018  160.0836 C.3     1  UNL1        0.0576
     23 C         141.8705  139.8120  159.5733 C.3     1  UNL1        0.0174
     24 C         141.4356  138.6179  158.7764 C.3     1  UNL1        0.0187
     25 C         139.9364  138.5697  158.7942 C.3     1  UNL1        0.0721
     26 N         139.4449  139.7341  159.6021 N.3     1  UNL1       -0.2737
@<TRIPOS>BOND
     1    22    21    1
     2    22    23    1
     3    23    24    1
     4    24    25    1
     5    25    26    1
     6    26    20    1
     7    20    19    1
     8    19     1    1
     9     1     2   ar
    10     2     3   ar
    11     3     4   ar
    12     4     7    1
    13     7     8   ar
    14     8     9   ar
    15     9    10   ar
    16    10    13    1
    17    13    14    1
    18    13    15    2
    19    13    16    2
    20    10    11   ar
    21    11    12   ar
    22     4     5   ar
    23     5     6   ar
    24    26    22    1
    25     6     1   ar
    26    12     7   ar
    27    14    17    1
    28    14    18    1
@<TRIPOS>MOLECULE
*****
 26 28 0 0 0
SMALL
GASTEIGER

@<TRIPOS>ATOM
      1 C         142.8076  138.0532  162.0753 C.ar    1  UNL1       -0.0208
      2 C         141.5376  137.5779  162.7163 C.ar    1  UNL1       -0.0042
      3 C         141.2215  137.9637  164.1309 C.ar    1  UNL1       -0.0003
      4 C         142.1754  138.8249  164.9045 C.ar    1  UNL1       -0.0000
      5 C         143.4455  139.3002  164.2635 C.ar    1  UNL1       -0.0003
      6 C         143.7616  138.9144  162.8489 C.ar    1  UNL1       -0.0042
      7 C         141.8593  139.2107  166.3192 C.ar    1  UNL1        0.0001
      8 C         140.4897  139.7103  166.6721 C.ar    1  UNL1        0.0014
      9 C         140.1735  140.0961  168.0868 C.ar    1  UNL1        0.0199
     10 C         141.2270  139.9823  169.1485 C.ar    1  UNL1        0.1217
     11 C         142.5967  139.4826  168.7955 C.ar    1  UNL1        0.0199
     12 C         142.9128  139.0969  167.3809 C.ar    1  UNL1        0.0014
     13 S         140.9109  140.3680  170.5631 S.O2    1  UNL1        0.0572
     14 N         140.5948  140.7538  171.9778 N.3     1  UNL1       -0.2035
     15 O         139.5887  139.6676  170.4587 O.2     1  UNL1       -0.1532
     16 O         142.2332  141.0685  170.6676 O.2     1  UNL1       -0.1532
     17 H         139.6754  140.3922  172.2315 H       1  UNL1        0.1442
     18 H         140.5952  141.7704  172.0611 H       1  UNL1        0.1442
     19 C         143.1238  137.6674  160.6606 C.3     1  UNL1        0.0437
     20 C         142.6973  138.5539  159.5283 C.3     1  UNL1        0.0768
     21 C         139.4658  138.8895  159.8349 C.3     1  UNL1        0.0173
     22 C         140.4812  139.9872  159.9523 C.3     1  UNL1        0.0576
     23 C         140.1896  141.4319  160.2312 C.3     1  UNL1        0.0174
     24 C         141.4948  142.1706  160.2626 C.3     1  UNL1        0.0187
     25 C         142.5931  141.1824  160.0031 C.3     1  UNL1        0.0721
     26 N         141.9666  139.8330  159.8113 N.3     1  UNL1       -0.2737
@<TRIPOS>BOND
     1    22    21    1
     2    22    23    1
     3    23    24    1
     4    24    25    1
     5    25    26    1
     6    26    20    1
     7    20    19    1
     8    19     1    1
     9     1     2   ar
    10     2     3   ar
    11     3     4   ar
    12     4     7    1
    13     7     8   ar
    14     8     9   ar
    15     9    10   ar
    16    10    13    1
    17    13    14    1
    18    13    15    2
    19    13    16    2
    20    10    11   ar
    21    11    12   ar
    22     4     5   ar
    23     5     6   ar
    24    26    22    1
    25     6     1   ar
    26    12     7   ar
    27    14    17    1
    28    14    18    1
@<TRIPOS>MOLECULE
*****
 26 28 0 0 0
SMALL
GASTEIGER

@<TRIPOS>ATOM
      1 C         140.0797  143.8805  162.0052 C.ar    1  UNL1       -0.0208
      2 C         140.0813  144.7407  163.2341 C.ar    1  UNL1       -0.0042
      3 C         140.0486  144.1069  164.5932 C.ar    1  UNL1       -0.0003
      4 C         140.0143  142.6129  164.7234 C.ar    1  UNL1       -0.0000
      5 C         140.0126  141.7528  163.4946 C.ar    1  UNL1       -0.0003
      6 C         140.0453  142.3866  162.1355 C.ar    1  UNL1       -0.0042
      7 C         139.9816  141.9792  166.0826 C.ar    1  UNL1        0.0001
      8 C         139.4164  140.6004  166.2538 C.ar    1  UNL1        0.0014
      9 C         139.3837  139.9666  167.6130 C.ar    1  UNL1        0.0199
     10 C         139.9162  140.7117  168.8010 C.ar    1  UNL1        0.1217
     11 C         140.4815  142.0906  168.6297 C.ar    1  UNL1        0.0199
     12 C         140.5141  142.7243  167.2706 C.ar    1  UNL1        0.0014
     13 S         139.8836  140.0780  170.1601 S.O2    1  UNL1        0.0572
     14 N         139.8509  139.4443  171.5193 N.3     1  UNL1       -0.2035
     15 O         138.5203  140.6570  170.3973 O.2     1  UNL1       -0.1532
     16 O         141.2468  139.4990  169.9229 O.2     1  UNL1       -0.1532
     17 H         138.9695  139.6719  171.9794 H       1  UNL1        0.1442
     18 H         140.6274  139.7980  172.0781 H       1  UNL1        0.1442
     19 C         140.1124  144.5143  160.6460 C.3     1  UNL1        0.0437
     20 C         141.4148  144.9830  160.0682 C.3     1  UNL1        0.0768
     21 C         143.5717  143.6605  162.1292 C.3     1  UNL1        0.0173
     22 C         143.4703  143.3796  160.6593 C.3     1  UNL1        0.0576
     23 C         144.3424  142.4416  159.8786 C.3     1  UNL1        0.0174
     24 C         143.8899  142.4698  158.4487 C.3     1  UNL1        0.0187
     25 C         142.7381  143.4253  158.3457 C.3     1  UNL1        0.0721
     26 N         142.4788  143.9875  159.7120 N.3     1  UNL1       -0.2737
@<TRIPOS>BOND
     1    22    21    1
     2    22    23    1
     3    23    24    1
     4    24    25    1
     5    25    26    1
     6    26    20    1
     7    20    19    1
     8    19     1    1
     9     1     2   ar
    10     2     3   ar
    11     3     4   ar
    12     4     7    1
    13     7     8   ar
    14     8     9   ar
    15     9    10   ar
    16    10    13    1
    17    13    14    1
    18    13    15    2
    19    13    16    2
    20    10    11   ar
    21    11    12   ar
    22     4     5   ar
    23     5     6   ar
    24    26    22    1
    25     6     1   ar
    26    12     7   ar
    27    14    17    1
    28    14    18    1
@<TRIPOS>MOLECULE
*****
 26 28 0 0 0
SMALL
GASTEIGER

@<TRIPOS>ATOM
      1 C         142.8331  138.0162  162.0080 C.ar    1  UNL1       -0.0208
      2 C         143.8293  138.7943  162.8155 C.ar    1  UNL1       -0.0042
      3 C         143.5109  139.1801  164.2296 C.ar    1  UNL1       -0.0003
      4 C         142.1964  138.7878  164.8362 C.ar    1  UNL1       -0.0000
      5 C         141.2002  138.0096  164.0288 C.ar    1  UNL1       -0.0003
      6 C         141.5186  137.6238  162.6147 C.ar    1  UNL1       -0.0042
      7 C         141.8780  139.1736  166.2504 C.ar    1  UNL1        0.0001
      8 C         142.9295  139.0589  167.3140 C.ar    1  UNL1        0.0014
      9 C         142.6111  139.4448  168.7282 C.ar    1  UNL1        0.0199
     10 C         141.2412  139.9452  169.0787 C.ar    1  UNL1        0.1217
     11 C         140.1897  140.0599  168.0151 C.ar    1  UNL1        0.0199
     12 C         140.5081  139.6740  166.6010 C.ar    1  UNL1        0.0014
     13 S         140.9229  140.3311  170.4928 S.O2    1  UNL1        0.0572
     14 N         140.6045  140.7169  171.9069 N.3     1  UNL1       -0.2035
     15 O         142.2731  140.9715  170.6221 O.2     1  UNL1       -0.1532
     16 O         139.5726  139.6906  170.3635 O.2     1  UNL1       -0.1532
     17 H         141.3979  141.2149  172.3103 H       1  UNL1        0.1442
     18 H         140.4162  139.8770  172.4543 H       1  UNL1        0.1442
     19 C         143.1515  137.6303  160.5938 C.3     1  UNL1        0.0437
     20 C         142.5863  138.4251  159.4542 C.3     1  UNL1        0.0768
     21 C         140.8570  140.8401  160.8059 C.3     1  UNL1        0.0173
     22 C         142.0878  141.0014  159.9638 C.3     1  UNL1        0.0576
     23 C         142.7399  142.3010  159.5953 C.3     1  UNL1        0.0174
     24 C         143.9378  141.9941  158.7461 C.3     1  UNL1        0.0187
     25 C         144.0260  140.5048  158.5900 C.3     1  UNL1        0.0721
     26 N         142.8827  139.8914  159.3426 N.3     1  UNL1       -0.2737
@<TRIPOS>BOND
     1    22    21    1
     2    22    23    1
     3    23    24    1
     4    24    25    1
     5    25    26    1
     6    26    20    1
     7    20    19    1
     8    19     1    1
     9     1     2   ar
    10     2     3   ar
    11     3     4   ar
    12     4     7    1
    13     7     8   ar
    14     8     9   ar
    15     9    10   ar
    16    10    13    1
    17    13    14    1
    18    13    15    2
    19    13    16    2
    20    10    11   ar
    21    11    12   ar
    22     4     5   ar
    23     5     6   ar
    24    26    22    1
    25     6     1   ar
    26    12     7   ar
    27    14    17    1
    28    14    18    1
@<TRIPOS>MOLECULE
*****
 26 28 0 0 0
SMALL
GASTEIGER

@<TRIPOS>ATOM
      1 C         138.3655  138.8683  163.0223 C.ar    1  UNL1       -0.0208
      2 C         138.0800  140.2710  163.4704 C.ar    1  UNL1       -0.0042
      3 C         138.6255  140.7667  164.7768 C.ar    1  UNL1       -0.0003
      4 C         139.4565  139.8596  165.6351 C.ar    1  UNL1       -0.0000
      5 C         139.7420  138.4569  165.1870 C.ar    1  UNL1       -0.0003
      6 C         139.1965  137.9612  163.8806 C.ar    1  UNL1       -0.0042
      7 C         140.0020  140.3553  166.9415 C.ar    1  UNL1        0.0001
      8 C         139.4065  139.8775  168.2326 C.ar    1  UNL1        0.0014
      9 C         139.9520  140.3732  169.5391 C.ar    1  UNL1        0.0199
     10 C         141.0931  141.3467  169.5544 C.ar    1  UNL1        0.1217
     11 C         141.6886  141.8245  168.2632 C.ar    1  UNL1        0.0199
     12 C         141.1431  141.3288  166.9568 C.ar    1  UNL1        0.0014
     13 S         141.6386  141.8424  170.8607 S.O2    1  UNL1        0.0572
     14 N         142.1841  142.3381  172.1671 N.3     1  UNL1       -0.2035
     15 O         142.7425  142.5492  170.1315 O.2     1  UNL1       -0.1532
     16 O         140.5347  141.1355  171.5899 O.2     1  UNL1       -0.1532
     17 H         143.0155  142.9036  171.9957 H       1  UNL1        0.1442
     18 H         142.4295  141.5428  172.7568 H       1  UNL1        0.1442
     19 C         137.8200  138.3726  161.7158 C.3     1  UNL1        0.0437
     20 C         138.6009  138.5761  160.4514 C.3     1  UNL1        0.0768
     21 C         139.2018  141.7730  160.1901 C.3     1  UNL1        0.0173
     22 C         140.2280  140.6957  160.3805 C.3     1  UNL1        0.0576
     23 C         141.7106  140.8987  160.4842 C.3     1  UNL1        0.0174
     24 C         142.3507  139.5546  160.6684 C.3     1  UNL1        0.0187
     25 C         141.2637  138.5210  160.6785 C.3     1  UNL1        0.0721
     26 N         139.9518  139.2263  160.5006 N.3     1  UNL1       -0.2737
@<TRIPOS>BOND
     1    22    21    1
     2    22    23    1
     3    23    24    1
     4    24    25    1
     5    25    26    1
     6    26    20    1
     7    20    19    1
     8    19     1    1
     9     1     2   ar
    10     2     3   ar
    11     3     4   ar
    12     4     7    1
    13     7     8   ar
    14     8     9   ar
    15     9    10   ar
    16    10    13    1
    17    13    14    1
    18    13    15    2
    19    13    16    2
    20    10    11   ar
    21    11    12   ar
    22     4     5   ar
    23     5     6   ar
    24    26    22    1
    25     6     1   ar
    26    12     7   ar
    27    14    17    1
    28    14    18    1
@<TRIPOS>MOLECULE
*****
 26 28 0 0 0
SMALL
GASTEIGER

@<TRIPOS>ATOM
      1 C         142.8099  137.9314  161.9637 C.ar    1  UNL1       -0.0208
      2 C         141.5030  137.5441  162.5898 C.ar    1  UNL1       -0.0042
      3 C         141.1975  137.9513  164.0007 C.ar    1  UNL1       -0.0003
      4 C         142.1989  138.7458  164.7855 C.ar    1  UNL1       -0.0000
      5 C         143.5057  139.1332  164.1594 C.ar    1  UNL1       -0.0003
      6 C         143.8112  138.7259  162.7485 C.ar    1  UNL1       -0.0042
      7 C         141.8933  139.1530  166.1966 C.ar    1  UNL1        0.0001
      8 C         142.9579  139.0659  167.2496 C.ar    1  UNL1        0.0014
      9 C         142.6524  139.4732  168.6606 C.ar    1  UNL1        0.0199
     10 C         141.2821  139.9674  169.0185 C.ar    1  UNL1        0.1217
     11 C         140.2174  140.0545  167.9654 C.ar    1  UNL1        0.0199
     12 C         140.5230  139.6473  166.5545 C.ar    1  UNL1        0.0014
     13 S         140.9765  140.3746  170.4294 S.O2    1  UNL1        0.0572
     14 N         140.6709  140.7818  171.8403 N.3     1  UNL1       -0.2035
     15 O         142.3314  141.0088  170.5399 O.2     1  UNL1       -0.1532
     16 O         139.6217  139.7405  170.3190 O.2     1  UNL1       -0.1532
     17 H         141.4703  141.2807  172.2310 H       1  UNL1        0.1442
     18 H         140.4819  139.9508  172.4007 H       1  UNL1        0.1442
     19 C         143.1154  137.5242  160.5526 C.3     1  UNL1        0.0437
     20 C         142.9387  138.5070  159.4334 C.3     1  UNL1        0.0768
     21 C         140.5338  140.5300  160.3129 C.3     1  UNL1        0.0173
     22 C         140.5016  139.5707  159.1603 C.3     1  UNL1        0.0576
     23 C         139.3584  139.3727  158.2095 C.3     1  UNL1        0.0174
     24 C         139.7572  138.3204  157.2177 C.3     1  UNL1        0.0187
     25 C         141.1470  137.8681  157.5554 C.3     1  UNL1        0.0721
     26 N         141.6070  138.6408  158.7560 N.3     1  UNL1       -0.2737
@<TRIPOS>BOND
     1    22    21    1
     2    22    23    1
     3    23    24    1
     4    24    25    1
     5    25    26    1
     6    26    20    1
     7    20    19    1
     8    19     1    1
     9     1     2   ar
    10     2     3   ar
    11     3     4   ar
    12     4     7    1
    13     7     8   ar
    14     8     9   ar
    15     9    10   ar
    16    10    13    1
    17    13    14    1
    18    13    15    2
    19    13    16    2
    20    10    11   ar
    21    11    12   ar
    22     4     5   ar
    23     5     6   ar
    24    26    22    1
    25     6     1   ar
    26    12     7   ar
    27    14    17    1
    28    14    18    1
