@<TRIPOS>MOLECULE
*****
 38 43 0 0 0
SMALL
GASTEIGER

@<TRIPOS>ATOM
      1 C         141.4133  143.9795  160.9265 C.ar    1  UNL1        0.0932
      2 C         141.0543  145.3584  160.4572 C.ar    1  UNL1        0.0405
      3 C         139.7844  146.0036  160.9272 C.ar    1  UNL1        0.1034
      4 N         138.8735  145.2702  161.8665 N.ar    1  UNL1       -0.2120
      5 C         139.2324  143.8915  162.3358 C.ar    1  UNL1        0.2207
      6 N         140.5024  143.2462  161.8658 N.ar    1  UNL1       -0.2130
      7 C         143.7588  142.7635  161.3325 C.ar    1  UNL1        0.0907
      8 N         144.8409  142.2229  160.4454 N.ar    1  UNL1       -0.2240
      9 C         144.4340  142.4597  159.0211 C.ar    1  UNL1        0.1631
     10 S         143.1006  143.1465  159.0280 S.2     1  UNL1       -0.0500
     11 C         142.6833  143.3343  160.4566 C.ar    1  UNL1        0.0674
     12 F         143.7368  142.6604  167.3316 F       1  UNL1       -0.2042
     13 C         143.7423  142.6862  165.8318 C.ar    1  UNL1        0.1401
     14 C         144.1191  143.9428  165.1047 C.ar    1  UNL1        0.0297
     15 C         144.1246  143.9686  163.6049 C.ar    1  UNL1        0.0038
     16 C         143.7533  142.7377  162.8323 C.ar    1  UNL1        0.0184
     17 C         143.3765  141.4810  163.5594 C.ar    1  UNL1        0.0038
     18 C         143.3710  141.4553  165.0592 C.ar    1  UNL1        0.0297
     19 N         145.2223  142.0768  157.8038 N.pl3   1  UNL1       -0.2882
     20 C         144.8579  141.0065  156.8180 C.3     1  UNL1        0.0927
     21 C         145.9238  140.9652  155.7635 C.3     1  UNL1        0.0232
     22 C         146.9470  142.0100  156.0974 C.3     1  UNL1        0.0232
     23 C         146.5134  142.6970  157.3584 C.3     1  UNL1        0.0927
     24 N         138.3215  143.1580  163.2750 N.pl3   1  UNL1       -0.2825
     25 H         137.3592  143.0936  163.0775 H       1  UNL1        0.1551
     26 C         138.8767  142.5228  164.5152 C.ar    1  UNL1        0.0505
     27 C         139.7049  143.3340  165.4671 C.ar    1  UNL1        0.0159
     28 C         140.2602  142.6988  166.7074 C.ar    1  UNL1        0.0158
     29 C         139.9873  141.2523  166.9957 C.ar    1  UNL1        0.0480
     30 C         139.1591  140.4410  166.0438 C.ar    1  UNL1        0.0158
     31 C         138.6039  141.0763  164.8036 C.ar    1  UNL1        0.0159
     32 N         140.5425  140.6171  168.2360 N.pl3   1  UNL1       -0.3047
     33 C         141.8800  139.9391  168.1969 C.3     1  UNL1        0.1079
     34 C         142.4352  139.3039  169.4372 C.3     1  UNL1        0.0903
     35 N         141.6530  139.3466  170.7163 N.3     1  UNL1       -0.2946
     36 C         140.3155  140.0245  170.7554 C.3     1  UNL1        0.0903
     37 C         139.7603  140.6598  169.5151 C.3     1  UNL1        0.1079
     38 H         142.2410  139.8154  171.4055 H       1  UNL1        0.1233
@<TRIPOS>BOND
     1    12    13    1
     2    13    14   ar
     3    14    15   ar
     4    15    16   ar
     5    16     7    1
     6     7     8   ar
     7     8     9   ar
     8     9    19    1
     9    19    20    1
    10    20    21    1
    11    21    22    1
    12    22    23    1
    13     9    10   ar
    14    10    11   ar
    15    11     1    1
    16     1     2   ar
    17     2     3   ar
    18     3     4   ar
    19     4     5   ar
    20     5    24    1
    21    24    26    1
    22    26    27   ar
    23    27    28   ar
    24    28    29   ar
    25    29    32    1
    26    32    33    1
    27    33    34    1
    28    34    35    1
    29    35    36    1
    30    36    37    1
    31    29    30   ar
    32    30    31   ar
    33     5     6   ar
    34    16    17   ar
    35    17    18   ar
    36    18    13   ar
    37    11     7   ar
    38     6     1   ar
    39    23    19    1
    40    31    26   ar
    41    37    32    1
    42    24    25    1
    43    35    38    1
@<TRIPOS>MOLECULE
*****
 38 43 0 0 0
SMALL
GASTEIGER

@<TRIPOS>ATOM
      1 C         139.9276  140.1272  160.6277 C.ar    1  UNL1        0.0932
      2 C         139.5538  141.3438  159.8339 C.ar    1  UNL1        0.0405
      3 C         138.5082  142.2859  160.3528 C.ar    1  UNL1        0.1034
      4 N         137.8364  142.0114  161.6655 N.ar    1  UNL1       -0.2120
      5 C         138.2102  140.7948  162.4593 C.ar    1  UNL1        0.2207
      6 N         139.2558  139.8527  161.9404 N.ar    1  UNL1       -0.2130
      7 C         141.9642  138.4240  160.9387 C.ar    1  UNL1        0.0907
      8 N         142.8148  137.6073  160.0116 N.ar    1  UNL1       -0.2240
      9 C         142.3494  137.8635  158.6088 C.ar    1  UNL1        0.1631
     10 S         141.2112  138.8387  158.6689 S.2     1  UNL1       -0.0500
     11 C         140.9732  139.1851  160.1088 C.ar    1  UNL1        0.0674
     12 F         142.4421  138.6136  166.9166 F       1  UNL1       -0.2042
     13 C         142.3226  138.5662  165.4221 C.ar    1  UNL1        0.1401
     14 C         143.0381  139.5805  164.5800 C.ar    1  UNL1        0.0297
     15 C         142.9186  139.5331  163.0855 C.ar    1  UNL1        0.0038
     16 C         142.0837  138.4714  162.4332 C.ar    1  UNL1        0.0184
     17 C         141.3682  137.4571  163.2753 C.ar    1  UNL1        0.0038
     18 C         141.4877  137.5045  164.7698 C.ar    1  UNL1        0.0297
     19 N         142.9218  137.2520  157.3645 N.pl3   1  UNL1       -0.2882
     20 C         143.4393  138.0003  156.1719 C.3     1  UNL1        0.0927
     21 C         143.9145  136.9955  155.1647 C.3     1  UNL1        0.0232
     22 C         143.6907  135.6262  155.7346 C.3     1  UNL1        0.0232
     23 C         143.0771  135.7848  157.0942 C.3     1  UNL1        0.0927
     24 N         137.5384  140.5203  163.7721 N.pl3   1  UNL1       -0.2825
     25 H         136.5772  140.3091  163.7985 H       1  UNL1        0.1551
     26 C         138.3311  140.5674  165.0446 C.ar    1  UNL1        0.0505
     27 C         138.1948  139.4666  166.0544 C.ar    1  UNL1        0.0159
     28 C         138.9875  139.5137  167.3270 C.ar    1  UNL1        0.0158
     29 C         139.9165  140.6617  167.5898 C.ar    1  UNL1        0.0480
     30 C         140.0528  141.7626  166.5800 C.ar    1  UNL1        0.0158
     31 C         139.2601  141.7154  165.3074 C.ar    1  UNL1        0.0159
     32 N         140.7092  140.7089  168.8623 N.pl3   1  UNL1       -0.3047
     33 C         140.0215  140.5187  170.1817 C.3     1  UNL1        0.1079
     34 C         140.8142  140.5659  171.4543 C.3     1  UNL1        0.0903
     35 N         142.2946  140.8033  171.4074 N.3     1  UNL1       -0.2946
     36 C         142.9823  140.9935  170.0880 C.3     1  UNL1        0.0903
     37 C         142.1896  140.9463  168.8155 C.3     1  UNL1        0.1079
     38 H         142.7358  140.0007  171.8564 H       1  UNL1        0.1233
@<TRIPOS>BOND
     1    12    13    1
     2    13    14   ar
     3    14    15   ar
     4    15    16   ar
     5    16     7    1
     6     7     8   ar
     7     8     9   ar
     8     9    19    1
     9    19    20    1
    10    20    21    1
    11    21    22    1
    12    22    23    1
    13     9    10   ar
    14    10    11   ar
    15    11     1    1
    16     1     2   ar
    17     2     3   ar
    18     3     4   ar
    19     4     5   ar
    20     5    24    1
    21    24    26    1
    22    26    27   ar
    23    27    28   ar
    24    28    29   ar
    25    29    32    1
    26    32    33    1
    27    33    34    1
    28    34    35    1
    29    35    36    1
    30    36    37    1
    31    29    30   ar
    32    30    31   ar
    33     5     6   ar
    34    16    17   ar
    35    17    18   ar
    36    18    13   ar
    37    11     7   ar
    38     6     1   ar
    39    23    19    1
    40    31    26   ar
    41    37    32    1
    42    24    25    1
    43    35    38    1
@<TRIPOS>MOLECULE
*****
 38 43 0 0 0
SMALL
GASTEIGER

@<TRIPOS>ATOM
      1 C         140.0208  142.1308  160.4290 C.ar    1  UNL1        0.0932
      2 C         140.4322  140.8047  159.8612 C.ar    1  UNL1        0.0405
      3 C         140.0425  139.5361  160.5603 C.ar    1  UNL1        0.1034
      4 N         139.2415  139.5935  161.8272 N.ar    1  UNL1       -0.2120
      5 C         138.8302  140.9196  162.3950 C.ar    1  UNL1        0.2207
      6 N         139.2198  142.1882  161.6958 N.ar    1  UNL1       -0.2130
      7 C         141.4140  144.4022  160.2170 C.ar    1  UNL1        0.0907
      8 N         141.4887  145.5104  159.2090 N.ar    1  UNL1       -0.2240
      9 C         140.5313  145.1926  158.0988 C.ar    1  UNL1        0.1631
     10 S         139.8649  143.8879  158.4207 S.2     1  UNL1       -0.0500
     11 C         140.4105  143.3994  159.7298 C.ar    1  UNL1        0.0674
     12 F         144.5744  144.0431  165.3045 F       1  UNL1       -0.2042
     13 C         143.7843  144.1329  164.0327 C.ar    1  UNL1        0.1401
     14 C         144.2837  143.4570  162.7902 C.ar    1  UNL1        0.0297
     15 C         143.4936  143.5468  161.5183 C.ar    1  UNL1        0.0038
     16 C         142.2041  144.3124  161.4889 C.ar    1  UNL1        0.0184
     17 C         141.7047  144.9883  162.7313 C.ar    1  UNL1        0.0038
     18 C         142.4948  144.8985  164.0032 C.ar    1  UNL1        0.0297
     19 N         140.2839  146.0322  156.8806 N.pl3   1  UNL1       -0.2882
     20 C         141.0169  145.9304  155.5759 C.3     1  UNL1        0.0927
     21 C         140.4459  146.9562  154.6422 C.3     1  UNL1        0.0232
     22 C         139.3600  147.6920  155.3699 C.3     1  UNL1        0.0232
     23 C         139.2599  147.1209  156.7533 C.3     1  UNL1        0.0927
     24 N         138.0291  140.9770  163.6619 N.pl3   1  UNL1       -0.2825
     25 H         137.0471  141.0343  163.6212 H       1  UNL1        0.1551
     26 C         138.7243  140.9472  164.9908 C.ar    1  UNL1        0.0505
     27 C         139.5935  142.0961  165.4084 C.ar    1  UNL1        0.0159
     28 C         140.2887  142.0663  166.7373 C.ar    1  UNL1        0.0158
     29 C         140.1146  140.8876  167.6485 C.ar    1  UNL1        0.0480
     30 C         139.2453  139.7387  167.2308 C.ar    1  UNL1        0.0158
     31 C         138.5502  139.7685  165.9020 C.ar    1  UNL1        0.0159
     32 N         140.8097  140.8578  168.9774 N.pl3   1  UNL1       -0.3047
     33 C         140.3109  141.7133  170.1040 C.3     1  UNL1        0.1079
     34 C         141.0060  141.6834  171.4329 C.3     1  UNL1        0.0903
     35 N         142.1999  140.7982  171.6351 N.3     1  UNL1       -0.2946
     36 C         142.6988  139.9428  170.5085 C.3     1  UNL1        0.0903
     37 C         142.0037  139.9726  169.1796 C.3     1  UNL1        0.1079
     38 H         141.9726  140.1685  172.4046 H       1  UNL1        0.1233
@<TRIPOS>BOND
     1    12    13    1
     2    13    14   ar
     3    14    15   ar
     4    15    16   ar
     5    16     7    1
     6     7     8   ar
     7     8     9   ar
     8     9    19    1
     9    19    20    1
    10    20    21    1
    11    21    22    1
    12    22    23    1
    13     9    10   ar
    14    10    11   ar
    15    11     1    1
    16     1     2   ar
    17     2     3   ar
    18     3     4   ar
    19     4     5   ar
    20     5    24    1
    21    24    26    1
    22    26    27   ar
    23    27    28   ar
    24    28    29   ar
    25    29    32    1
    26    32    33    1
    27    33    34    1
    28    34    35    1
    29    35    36    1
    30    36    37    1
    31    29    30   ar
    32    30    31   ar
    33     5     6   ar
    34    16    17   ar
    35    17    18   ar
    36    18    13   ar
    37    11     7   ar
    38     6     1   ar
    39    23    19    1
    40    31    26   ar
    41    37    32    1
    42    24    25    1
    43    35    38    1
@<TRIPOS>MOLECULE
*****
 38 43 0 0 0
SMALL
GASTEIGER

@<TRIPOS>ATOM
      1 C         140.8337  140.4392  160.6360 C.ar    1  UNL1        0.0932
      2 C         139.4380  140.6893  160.1462 C.ar    1  UNL1        0.0405
      3 C         138.6564  141.8564  160.6723 C.ar    1  UNL1        0.1034
      4 N         139.2703  142.7736  161.6881 N.ar    1  UNL1       -0.2120
      5 C         140.6659  142.5235  162.1779 C.ar    1  UNL1        0.2207
      6 N         141.4475  141.3564  161.6518 N.ar    1  UNL1       -0.2130
      7 C         142.4225  138.3098  160.9301 C.ar    1  UNL1        0.0907
      8 N         143.0330  137.3053  159.9983 N.ar    1  UNL1       -0.2240
      9 C         142.6031  137.6466  158.6024 C.ar    1  UNL1        0.1631
     10 S         141.7269  138.8621  158.6713 S.2     1  UNL1       -0.0500
     11 C         141.6153  139.2720  160.1099 C.ar    1  UNL1        0.0674
     12 F         143.0917  138.4540  166.8909 F       1  UNL1       -0.2042
     13 C         142.9244  138.4180  165.4007 C.ar    1  UNL1        0.1401
     14 C         141.7100  137.7765  164.7976 C.ar    1  UNL1        0.0297
     15 C         141.5427  137.7405  163.3074 C.ar    1  UNL1        0.0038
     16 C         142.5898  138.3459  162.4203 C.ar    1  UNL1        0.0184
     17 C         143.8042  138.9873  163.0234 C.ar    1  UNL1        0.0038
     18 C         143.9715  139.0234  164.5136 C.ar    1  UNL1        0.0297
     19 N         142.9828  136.9030  157.3562 N.pl3   1  UNL1       -0.2882
     20 C         143.0912  135.4134  157.2169 C.3     1  UNL1        0.0927
     21 C         143.4961  135.1082  155.8052 C.3     1  UNL1        0.0232
     22 C         143.6380  136.4091  155.0721 C.3     1  UNL1        0.0232
     23 C         143.3208  137.5183  156.0307 C.3     1  UNL1        0.0927
     24 N         141.2798  143.4407  163.1937 N.pl3   1  UNL1       -0.2825
     25 H         141.5976  144.3324  162.9234 H       1  UNL1        0.1551
     26 C         141.4094  142.9992  164.6214 C.ar    1  UNL1        0.0505
     27 C         142.7149  142.4572  165.1232 C.ar    1  UNL1        0.0159
     28 C         142.8447  142.0157  166.5509 C.ar    1  UNL1        0.0158
     29 C         141.6688  142.1163  167.4768 C.ar    1  UNL1        0.0480
     30 C         140.3633  142.6583  166.9750 C.ar    1  UNL1        0.0158
     31 C         140.2336  143.0998  165.5473 C.ar    1  UNL1        0.0159
     32 N         141.7985  141.6748  168.9045 N.pl3   1  UNL1       -0.3047
     33 C         140.8720  142.2265  169.9471 C.3     1  UNL1        0.1079
     34 C         141.0016  141.7851  171.3748 C.3     1  UNL1        0.0903
     35 N         142.0578  140.7919  171.7598 N.3     1  UNL1       -0.2946
     36 C         142.9843  140.2402  170.7172 C.3     1  UNL1        0.0903
     37 C         142.8546  140.6817  169.2895 C.3     1  UNL1        0.1079
     38 H         141.5753  139.9955  172.1761 H       1  UNL1        0.1233
@<TRIPOS>BOND
     1    12    13    1
     2    13    14   ar
     3    14    15   ar
     4    15    16   ar
     5    16     7    1
     6     7     8   ar
     7     8     9   ar
     8     9    19    1
     9    19    20    1
    10    20    21    1
    11    21    22    1
    12    22    23    1
    13     9    10   ar
    14    10    11   ar
    15    11     1    1
    16     1     2   ar
    17     2     3   ar
    18     3     4   ar
    19     4     5   ar
    20     5    24    1
    21    24    26    1
    22    26    27   ar
    23    27    28   ar
    24    28    29   ar
    25    29    32    1
    26    32    33    1
    27    33    34    1
    28    34    35    1
    29    35    36    1
    30    36    37    1
    31    29    30   ar
    32    30    31   ar
    33     5     6   ar
    34    16    17   ar
    35    17    18   ar
    36    18    13   ar
    37    11     7   ar
    38     6     1   ar
    39    23    19    1
    40    31    26   ar
    41    37    32    1
    42    24    25    1
    43    35    38    1
@<TRIPOS>MOLECULE
*****
 38 43 0 0 0
SMALL
GASTEIGER

@<TRIPOS>ATOM
      1 C         139.0153  140.6835  161.1650 C.ar    1  UNL1        0.0932
      2 C         137.7876  139.9284  160.7493 C.ar    1  UNL1        0.0405
      3 C         137.5035  138.5774  161.3358 C.ar    1  UNL1        0.1034
      4 N         138.4470  137.9815  162.3381 N.ar    1  UNL1       -0.2120
      5 C         139.6746  138.7365  162.7539 C.ar    1  UNL1        0.2207
      6 N         139.9587  140.0875  162.1673 N.ar    1  UNL1       -0.2130
      7 C         139.6068  143.2837  161.3498 C.ar    1  UNL1        0.0907
      8 N         139.8234  144.3947  160.3656 N.ar    1  UNL1       -0.2240
      9 C         139.6498  143.8322  158.9859 C.ar    1  UNL1        0.1631
     10 S         139.3260  142.3735  159.1175 S.2     1  UNL1       -0.0500
     11 C         139.2994  142.0345  160.5784 C.ar    1  UNL1        0.0674
     12 F         139.9158  143.7539  167.3234 F       1  UNL1       -0.2042
     13 C         139.8385  143.6363  165.8300 C.ar    1  UNL1        0.1401
     14 C         140.9948  143.0685  165.0616 C.ar    1  UNL1        0.0297
     15 C         140.9176  142.9510  163.5682 C.ar    1  UNL1        0.0038
     16 C         139.6840  143.4013  162.8432 C.ar    1  UNL1        0.0184
     17 C         138.5277  143.9690  163.6117 C.ar    1  UNL1        0.0038
     18 C         138.6050  144.0866  165.1051 C.ar    1  UNL1        0.0297
     19 N         139.7777  144.5945  157.7004 N.pl3   1  UNL1       -0.2882
     20 C         140.4172  145.9411  157.5338 C.3     1  UNL1        0.0927
     21 C         140.3232  146.3229  156.0862 C.3     1  UNL1        0.0232
     22 C         139.6256  145.2123  155.3582 C.3     1  UNL1        0.0232
     23 C         139.2884  144.1441  156.3559 C.3     1  UNL1        0.0927
     24 N         140.6180  138.1406  163.7562 N.pl3   1  UNL1       -0.2825
     25 H         141.0735  137.2904  163.5587 H       1  UNL1        0.1551
     26 C         140.8676  138.8399  165.0595 C.ar    1  UNL1        0.0505
     27 C         139.7227  139.4422  165.8188 C.ar    1  UNL1        0.0159
     28 C         139.9722  140.1416  167.1221 C.ar    1  UNL1        0.0158
     29 C         141.3667  140.2387  167.6662 C.ar    1  UNL1        0.0480
     30 C         142.5116  139.6364  166.9069 C.ar    1  UNL1        0.0158
     31 C         142.2621  138.9370  165.6036 C.ar    1  UNL1        0.0159
     32 N         141.6162  140.9380  168.9695 N.pl3   1  UNL1       -0.3047
     33 C         142.6511  142.0206  169.0535 C.3     1  UNL1        0.1079
     34 C         142.9007  142.7199  170.3568 C.3     1  UNL1        0.0903
     35 N         142.1154  142.3367  171.5760 N.3     1  UNL1       -0.2946
     36 C         141.0805  141.2542  171.4920 C.3     1  UNL1        0.0903
     37 C         140.8309  140.5548  170.1887 C.3     1  UNL1        0.1079
     38 H         141.6355  143.1788  171.8938 H       1  UNL1        0.1233
@<TRIPOS>BOND
     1    12    13    1
     2    13    14   ar
     3    14    15   ar
     4    15    16   ar
     5    16     7    1
     6     7     8   ar
     7     8     9   ar
     8     9    19    1
     9    19    20    1
    10    20    21    1
    11    21    22    1
    12    22    23    1
    13     9    10   ar
    14    10    11   ar
    15    11     1    1
    16     1     2   ar
    17     2     3   ar
    18     3     4   ar
    19     4     5   ar
    20     5    24    1
    21    24    26    1
    22    26    27   ar
    23    27    28   ar
    24    28    29   ar
    25    29    32    1
    26    32    33    1
    27    33    34    1
    28    34    35    1
    29    35    36    1
    30    36    37    1
    31    29    30   ar
    32    30    31   ar
    33     5     6   ar
    34    16    17   ar
    35    17    18   ar
    36    18    13   ar
    37    11     7   ar
    38     6     1   ar
    39    23    19    1
    40    31    26   ar
    41    37    32    1
    42    24    25    1
    43    35    38    1
@<TRIPOS>MOLECULE
*****
 38 43 0 0 0
SMALL
GASTEIGER

@<TRIPOS>ATOM
      1 C         140.4676  140.2318  160.2960 C.ar    1  UNL1        0.0932
      2 C         140.1261  141.6243  159.8547 C.ar    1  UNL1        0.0405
      3 C         139.1298  142.4338  160.6307 C.ar    1  UNL1        0.1034
      4 N         138.4750  141.8510  161.8479 N.ar    1  UNL1       -0.2120
      5 C         138.8165  140.4586  162.2891 C.ar    1  UNL1        0.2207
      6 N         139.8128  139.6491  161.5131 N.ar    1  UNL1       -0.2130
      7 C         142.9349  139.3315  159.7991 C.ar    1  UNL1        0.0907
      8 N         143.5441  138.4145  158.7803 N.ar    1  UNL1       -0.2240
      9 C         142.4497  137.9386  157.8716 C.ar    1  UNL1        0.1631
     10 S         141.1640  138.5614  158.3288 S.2     1  UNL1       -0.0500
     11 C         141.4639  139.4223  159.5200 C.ar    1  UNL1        0.0674
     12 F         145.8670  142.1428  164.2148 F       1  UNL1       -0.2042
     13 C         145.1340  141.4400  163.1109 C.ar    1  UNL1        0.1401
     14 C         144.8591  142.1532  161.8203 C.ar    1  UNL1        0.0297
     15 C         144.1261  141.4504  160.7163 C.ar    1  UNL1        0.0038
     16 C         143.6679  140.0344  160.9030 C.ar    1  UNL1        0.0184
     17 C         143.9428  139.3212  162.1936 C.ar    1  UNL1        0.0038
     18 C         144.6758  140.0240  163.2976 C.ar    1  UNL1        0.0297
     19 N         142.6124  137.0039  156.7098 N.pl3   1  UNL1       -0.2882
     20 C         143.1730  135.6138  156.7683 C.3     1  UNL1        0.0927
     21 C         143.1501  135.0460  155.3801 C.3     1  UNL1        0.0232
     22 C         142.5754  136.0851  154.4636 C.3     1  UNL1        0.0232
     23 C         142.2430  137.2952  155.2855 C.3     1  UNL1        0.0927
     24 N         138.1617  139.8758  163.5063 N.pl3   1  UNL1       -0.2825
     25 H         137.2976  139.4110  163.4255 H       1  UNL1        0.1551
     26 C         138.8235  140.0012  164.8466 C.ar    1  UNL1        0.0505
     27 C         140.0872  140.7969  164.9876 C.ar    1  UNL1        0.0159
     28 C         140.7490  140.9223  166.3279 C.ar    1  UNL1        0.0158
     29 C         140.1471  140.2520  167.5272 C.ar    1  UNL1        0.0480
     30 C         138.8833  139.4563  167.3862 C.ar    1  UNL1        0.0158
     31 C         138.2215  139.3309  166.0459 C.ar    1  UNL1        0.0159
     32 N         140.8088  140.3774  168.8674 N.pl3   1  UNL1       -0.3047
     33 C         142.2789  140.1133  169.0056 C.3     1  UNL1        0.1079
     34 C         142.9406  140.2387  170.3459 C.3     1  UNL1        0.0903
     35 N         142.1323  140.6282  171.5479 N.3     1  UNL1       -0.2946
     36 C         140.6622  140.8923  171.4098 C.3     1  UNL1        0.0903
     37 C         140.0005  140.7669  170.0695 C.3     1  UNL1        0.1079
     38 H         142.5508  141.4804  171.9206 H       1  UNL1        0.1233
@<TRIPOS>BOND
     1    12    13    1
     2    13    14   ar
     3    14    15   ar
     4    15    16   ar
     5    16     7    1
     6     7     8   ar
     7     8     9   ar
     8     9    19    1
     9    19    20    1
    10    20    21    1
    11    21    22    1
    12    22    23    1
    13     9    10   ar
    14    10    11   ar
    15    11     1    1
    16     1     2   ar
    17     2     3   ar
    18     3     4   ar
    19     4     5   ar
    20     5    24    1
    21    24    26    1
    22    26    27   ar
    23    27    28   ar
    24    28    29   ar
    25    29    32    1
    26    32    33    1
    27    33    34    1
    28    34    35    1
    29    35    36    1
    30    36    37    1
    31    29    30   ar
    32    30    31   ar
    33     5     6   ar
    34    16    17   ar
    35    17    18   ar
    36    18    13   ar
    37    11     7   ar
    38     6     1   ar
    39    23    19    1
    40    31    26   ar
    41    37    32    1
    42    24    25    1
    43    35    38    1
@<TRIPOS>MOLECULE
*****
 38 43 0 0 0
SMALL
GASTEIGER

@<TRIPOS>ATOM
      1 C         142.1711  142.0751  160.7290 C.ar    1  UNL1        0.0932
      2 C         143.2976  142.8646  160.1308 C.ar    1  UNL1        0.0405
      3 C         144.7005  142.6584  160.6198 C.ar    1  UNL1        0.1034
      4 N         144.9771  141.6627  161.7071 N.ar    1  UNL1       -0.2120
      5 C         143.8507  140.8732  162.3053 C.ar    1  UNL1        0.2207
      6 N         142.4477  141.0794  161.8162 N.ar    1  UNL1       -0.2130
      7 C         139.5952  142.6988  161.0766 C.ar    1  UNL1        0.0907
      8 N         138.3940  142.7817  160.1821 N.ar    1  UNL1       -0.2240
      9 C         138.8245  142.4155  158.7927 C.ar    1  UNL1        0.1631
     10 S         140.2918  142.1062  158.8284 S.2     1  UNL1       -0.0500
     11 C         140.7681  142.2813  160.2400 C.ar    1  UNL1        0.0674
     12 F         139.6915  143.8372  166.9668 F       1  UNL1       -0.2042
     13 C         139.6674  143.5526  165.4943 C.ar    1  UNL1        0.1401
     14 C         139.4886  142.1459  165.0051 C.ar    1  UNL1        0.0297
     15 C         139.4645  141.8613  163.5325 C.ar    1  UNL1        0.0038
     16 C         139.6193  142.9834  162.5492 C.ar    1  UNL1        0.0184
     17 C         139.7981  144.3900  163.0384 C.ar    1  UNL1        0.0038
     18 C         139.8222  144.6746  164.5109 C.ar    1  UNL1        0.0297
     19 N         137.9425  142.3670  157.5803 N.pl3   1  UNL1       -0.2882
     20 C         137.8287  143.4315  156.5297 C.3     1  UNL1        0.0927
     21 C         136.8353  142.9679  155.5058 C.3     1  UNL1        0.0232
     22 C         136.3352  141.6169  155.9237 C.3     1  UNL1        0.0232
     23 C         137.0195  141.2455  157.2058 C.3     1  UNL1        0.0927
     24 N         144.1272  139.8775  163.3925 N.pl3   1  UNL1       -0.2825
     25 H         144.6729  139.0804  163.2028 H       1  UNL1        0.1551
     26 C         143.5723  140.0964  164.7688 C.ar    1  UNL1        0.0505
     27 C         143.2798  138.9220  165.6550 C.ar    1  UNL1        0.0159
     28 C         142.7249  139.1408  167.0313 C.ar    1  UNL1        0.0158
     29 C         142.4625  140.5339  167.5214 C.ar    1  UNL1        0.0480
     30 C         142.7550  141.7083  166.6352 C.ar    1  UNL1        0.0158
     31 C         143.3099  141.4895  165.2589 C.ar    1  UNL1        0.0159
     32 N         141.9076  140.7527  168.8978 N.pl3   1  UNL1       -0.3047
     33 C         142.5156  141.7893  169.7954 C.3     1  UNL1        0.1079
     34 C         141.9607  142.0081  171.1717 C.3     1  UNL1        0.0903
     35 N         140.7978  141.1904  171.6503 N.3     1  UNL1       -0.2946
     36 C         140.1898  140.1539  170.7526 C.3     1  UNL1        0.0903
     37 C         140.7447  139.9350  169.3763 C.3     1  UNL1        0.1079
     38 H         140.0542  141.8469  171.8879 H       1  UNL1        0.1233
@<TRIPOS>BOND
     1    12    13    1
     2    13    14   ar
     3    14    15   ar
     4    15    16   ar
     5    16     7    1
     6     7     8   ar
     7     8     9   ar
     8     9    19    1
     9    19    20    1
    10    20    21    1
    11    21    22    1
    12    22    23    1
    13     9    10   ar
    14    10    11   ar
    15    11     1    1
    16     1     2   ar
    17     2     3   ar
    18     3     4   ar
    19     4     5   ar
    20     5    24    1
    21    24    26    1
    22    26    27   ar
    23    27    28   ar
    24    28    29   ar
    25    29    32    1
    26    32    33    1
    27    33    34    1
    28    34    35    1
    29    35    36    1
    30    36    37    1
    31    29    30   ar
    32    30    31   ar
    33     5     6   ar
    34    16    17   ar
    35    17    18   ar
    36    18    13   ar
    37    11     7   ar
    38     6     1   ar
    39    23    19    1
    40    31    26   ar
    41    37    32    1
    42    24    25    1
    43    35    38    1
@<TRIPOS>MOLECULE
*****
 38 43 0 0 0
SMALL
GASTEIGER

@<TRIPOS>ATOM
      1 C         142.2707  140.6672  160.3195 C.ar    1  UNL1        0.0932
      2 C         140.8891  140.8064  159.7521 C.ar    1  UNL1        0.0405
      3 C         139.7342  140.1119  160.4109 C.ar    1  UNL1        0.1034
      4 N         139.9609  139.2783  161.6372 N.ar    1  UNL1       -0.2120
      5 C         141.3424  139.1392  162.2046 C.ar    1  UNL1        0.2207
      6 N         142.4973  139.8336  161.5457 N.ar    1  UNL1       -0.2130
      7 C         144.4349  142.2358  160.3440 C.ar    1  UNL1        0.0907
      8 N         145.4069  142.7182  159.3084 N.ar    1  UNL1       -0.2240
      9 C         144.9984  142.1421  157.9851 C.ar    1  UNL1        0.1631
     10 S         143.7738  141.3036  158.2028 S.2     1  UNL1       -0.0500
     11 C         143.4256  141.3616  159.6607 C.ar    1  UNL1        0.0674
     12 F         144.5616  143.5692  166.1926 F       1  UNL1       -0.2042
     13 C         144.5299  143.2359  164.7305 C.ar    1  UNL1        0.1401
     14 C         145.3049  142.0608  164.2121 C.ar    1  UNL1        0.0297
     15 C         145.2732  141.7275  162.7500 C.ar    1  UNL1        0.0038
     16 C         144.4666  142.5692  161.8062 C.ar    1  UNL1        0.0184
     17 C         143.6916  143.7442  162.3245 C.ar    1  UNL1        0.0038
     18 C         143.7233  144.0776  163.7866 C.ar    1  UNL1        0.0297
     19 N         145.6926  142.3652  156.6743 N.pl3   1  UNL1       -0.2882
     20 C         145.0289  142.4875  155.3347 C.3     1  UNL1        0.0927
     21 C         146.0985  142.7032  154.3054 C.3     1  UNL1        0.0232
     22 C         147.4233  142.7142  155.0088 C.3     1  UNL1        0.0232
     23 C         147.1724  142.5053  156.4729 C.3     1  UNL1        0.0927
     24 N         141.5691  138.3056  163.4308 N.pl3   1  UNL1       -0.2825
     25 H         141.6730  137.3299  163.3505 H       1  UNL1        0.1551
     26 C         141.6374  138.9585  164.7795 C.ar    1  UNL1        0.0505
     27 C         140.3787  139.2102  165.5556 C.ar    1  UNL1        0.0159
     28 C         140.4470  139.8632  166.9043 C.ar    1  UNL1        0.0158
     29 C         141.7740  140.2645  167.4769 C.ar    1  UNL1        0.0480
     30 C         143.0328  140.0128  166.7008 C.ar    1  UNL1        0.0158
     31 C         142.9645  139.3598  165.3521 C.ar    1  UNL1        0.0159
     32 N         141.8424  140.9174  168.8256 N.pl3   1  UNL1       -0.3047
     33 C         142.6957  142.1345  169.0272 C.3     1  UNL1        0.1079
     34 C         142.7641  142.7874  170.3759 C.3     1  UNL1        0.0903
     35 N         141.9791  142.2234  171.5229 N.3     1  UNL1       -0.2946
     36 C         141.1258  141.0064  171.3213 C.3     1  UNL1        0.0903
     37 C         141.0574  140.3534  169.9726 C.3     1  UNL1        0.1079
     38 H         141.3607  142.9657  171.8498 H       1  UNL1        0.1233
@<TRIPOS>BOND
     1    12    13    1
     2    13    14   ar
     3    14    15   ar
     4    15    16   ar
     5    16     7    1
     6     7     8   ar
     7     8     9   ar
     8     9    19    1
     9    19    20    1
    10    20    21    1
    11    21    22    1
    12    22    23    1
    13     9    10   ar
    14    10    11   ar
    15    11     1    1
    16     1     2   ar
    17     2     3   ar
    18     3     4   ar
    19     4     5   ar
    20     5    24    1
    21    24    26    1
    22    26    27   ar
    23    27    28   ar
    24    28    29   ar
    25    29    32    1
    26    32    33    1
    27    33    34    1
    28    34    35    1
    29    35    36    1
    30    36    37    1
    31    29    30   ar
    32    30    31   ar
    33     5     6   ar
    34    16    17   ar
    35    17    18   ar
    36    18    13   ar
    37    11     7   ar
    38     6     1   ar
    39    23    19    1
    40    31    26   ar
    41    37    32    1
    42    24    25    1
    43    35    38    1
@<TRIPOS>MOLECULE
*****
 38 43 0 0 0
SMALL
GASTEIGER

@<TRIPOS>ATOM
      1 C         139.8865  139.6243  160.4348 C.ar    1  UNL1        0.0932
      2 C         141.1484  139.0468  159.8652 C.ar    1  UNL1        0.0405
      3 C         141.8910  137.9812  160.6155 C.ar    1  UNL1        0.1034
      4 N         141.3718  137.4930  161.9354 N.ar    1  UNL1       -0.2120
      5 C         140.1101  138.0704  162.5050 C.ar    1  UNL1        0.2207
      6 N         139.3674  139.1361  161.7547 N.ar    1  UNL1       -0.2130
      7 C         138.7038  142.0132  160.2369 C.ar    1  UNL1        0.0907
      8 N         137.9989  142.7604  159.1438 N.ar    1  UNL1       -0.2240
      9 C         138.0034  141.8990  157.9159 C.ar    1  UNL1        0.1631
     10 S         138.7111  140.6193  158.2500 S.2     1  UNL1       -0.0500
     11 C         139.1439  140.6899  159.6845 C.ar    1  UNL1        0.0674
     12 F         139.6045  143.9733  165.8357 F       1  UNL1       -0.2042
     13 C         139.3793  143.4833  164.4360 C.ar    1  UNL1        0.1401
     14 C         138.0169  143.0187  164.0141 C.ar    1  UNL1        0.0297
     15 C         137.7918  142.5286  162.6144 C.ar    1  UNL1        0.0038
     16 C         138.9289  142.5032  161.6366 C.ar    1  UNL1        0.0184
     17 C         140.2913  142.9679  162.0585 C.ar    1  UNL1        0.0038
     18 C         140.5165  143.4579  163.4582 C.ar    1  UNL1        0.0297
     19 N         137.4053  142.2547  156.5871 N.pl3   1  UNL1       -0.2882
     20 C         137.4756  143.5960  155.9193 C.3     1  UNL1        0.0927
     21 C         136.7456  143.5018  154.6123 C.3     1  UNL1        0.0232
     22 C         136.2241  142.1024  154.4723 C.3     1  UNL1        0.0232
     23 C         136.6318  141.3316  155.6929 C.3     1  UNL1        0.0927
     24 N         139.5909  137.5822  163.8248 N.pl3   1  UNL1       -0.2825
     25 H         139.1087  136.7255  163.8777 H       1  UNL1        0.1551
     26 C         139.8063  138.3994  165.0642 C.ar    1  UNL1        0.0505
     27 C         141.1814  138.8883  165.4105 C.ar    1  UNL1        0.0159
     28 C         141.3969  139.7055  166.6499 C.ar    1  UNL1        0.0158
     29 C         140.2372  140.0336  167.5428 C.ar    1  UNL1        0.0480
     30 C         138.8620  139.5446  167.1965 C.ar    1  UNL1        0.0158
     31 C         138.6466  138.7275  165.9571 C.ar    1  UNL1        0.0159
     32 N         140.4526  140.8508  168.7822 N.pl3   1  UNL1       -0.3047
     33 C         140.4777  142.3482  168.6982 C.3     1  UNL1        0.1079
     34 C         140.6931  143.1653  169.9375 C.3     1  UNL1        0.0903
     35 N         140.8834  142.4850  171.2607 N.3     1  UNL1       -0.2946
     36 C         140.8582  140.9876  171.3447 C.3     1  UNL1        0.0903
     37 C         140.6428  140.1705  170.1054 C.3     1  UNL1        0.1079
     38 H         140.1454  142.8268  171.8764 H       1  UNL1        0.1233
@<TRIPOS>BOND
     1    12    13    1
     2    13    14   ar
     3    14    15   ar
     4    15    16   ar
     5    16     7    1
     6     7     8   ar
     7     8     9   ar
     8     9    19    1
     9    19    20    1
    10    20    21    1
    11    21    22    1
    12    22    23    1
    13     9    10   ar
    14    10    11   ar
    15    11     1    1
    16     1     2   ar
    17     2     3   ar
    18     3     4   ar
    19     4     5   ar
    20     5    24    1
    21    24    26    1
    22    26    27   ar
    23    27    28   ar
    24    28    29   ar
    25    29    32    1
    26    32    33    1
    27    33    34    1
    28    34    35    1
    29    35    36    1
    30    36    37    1
    31    29    30   ar
    32    30    31   ar
    33     5     6   ar
    34    16    17   ar
    35    17    18   ar
    36    18    13   ar
    37    11     7   ar
    38     6     1   ar
    39    23    19    1
    40    31    26   ar
    41    37    32    1
    42    24    25    1
    43    35    38    1
