@<TRIPOS>MOLECULE
*****
 33 36 0 0 0
SMALL
GASTEIGER

@<TRIPOS>ATOM
      1 C         139.8483  138.0902  163.1834 C.ar    1  UNL1        0.1534
      2 C         138.8163  137.9454  164.2622 C.ar    1  UNL1        0.0591
      3 C         139.0153  138.6218  165.5862 C.ar    1  UNL1        0.1072
      4 N         137.9833  138.4769  166.6651 N.ar    1  UNL1       -0.1477
      5 N         138.1823  139.1533  167.9890 N.ar    1  UNL1       -0.1421
      6 C         139.4134  139.9746  168.2341 C.ar    1  UNL1        0.1690
      7 C         140.4454  140.1194  167.1552 C.ar    1  UNL1        0.0740
      8 C         140.2463  139.4430  165.8313 C.ar    1  UNL1        0.0359
      9 C         141.2783  139.5879  164.7524 C.ar    1  UNL1        0.0204
     10 C         141.0793  138.9115  163.4284 C.ar    1  UNL1        0.0826
     11 N         142.1113  139.0563  162.3495 N.pl3   1  UNL1       -0.3004
     12 C         142.1344  140.2885  161.4944 C.3     1  UNL1        0.1231
     13 C         143.1664  140.4334  160.4155 C.3     1  UNL1        0.1636
     14 O         144.1754  139.3462  160.1918 O.3     1  UNL1       -0.3501
     15 C         144.1523  138.1140  161.0470 C.3     1  UNL1        0.1636
     16 C         143.1202  137.9691  162.1259 C.3     1  UNL1        0.1231
     17 C         139.6124  140.6510  169.5581 C.2     1  UNL1        0.2635
     18 N         139.4789  139.8656  170.8291 N.am    1  UNL1       -0.3240
     19 O         139.9450  142.1127  169.6110 O.2     1  UNL1       -0.2686
     20 H         139.2606  138.9063  170.7943 H       1  UNL1        0.1453
     21 H         139.6095  140.3096  171.6981 H       1  UNL1        0.1453
     22 C         139.0949  138.1855  160.6988 C.3     1  UNL1        0.2525
     23 O         139.6492  137.4138  161.8594 O.3     1  UNL1       -0.4701
     24 N         141.6764  140.9407  167.4003 N.pl3   1  UNL1       -0.3094
     25 H         142.2039  140.8043  168.2203 H       1  UNL1        0.1523
     26 C         142.1036  141.9698  166.3961 C.ar    1  UNL1        0.0761
     27 C         143.5480  142.0847  166.0080 C.ar    1  UNL1        0.0166
     28 C         143.9753  143.1137  165.0039 C.ar    1  UNL1       -0.0028
     29 C         142.9582  144.0281  164.3877 C.ar    1  UNL1       -0.0195
     30 C         143.3854  145.0572  163.3836 C.3     1  UNL1        0.0311
     31 C         141.5138  143.9133  164.7758 C.ar    1  UNL1        0.0267
     32 C         141.0865  142.8841  165.7800 C.ar    1  UNL1        0.1531
     33 F         139.6422  142.7693  166.1681 F       1  UNL1       -0.2029
@<TRIPOS>BOND
     1    22    23    1
     2    23     1    1
     3     1     2   ar
     4     2     3   ar
     5     3     4   ar
     6     4     5   ar
     7     5     6   ar
     8     6    17    1
     9    17    18   am
    10    17    19    2
    11     6     7   ar
    12     7    24    1
    13    24    26    1
    14    26    27   ar
    15    27    28   ar
    16    28    29   ar
    17    29    30    1
    18    29    31   ar
    19    31    32   ar
    20    32    33    1
    21     7     8   ar
    22     8     9   ar
    23     9    10   ar
    24    10    11    1
    25    11    12    1
    26    12    13    1
    27    13    14    1
    28    14    15    1
    29    15    16    1
    30    10     1   ar
    31    16    11    1
    32     8     3   ar
    33    32    26   ar
    34    18    20    1
    35    18    21    1
    36    24    25    1
@<TRIPOS>MOLECULE
*****
 33 36 0 0 0
SMALL
GASTEIGER

@<TRIPOS>ATOM
      1 C         138.1405  141.1666  162.9176 C.ar    1  UNL1        0.1534
      2 C         137.5993  140.2406  163.9662 C.ar    1  UNL1        0.0591
      3 C         138.2692  140.1506  165.3053 C.ar    1  UNL1        0.1072
      4 N         137.7279  139.2245  166.3539 N.ar    1  UNL1       -0.1477
      5 N         138.3978  139.1345  167.6930 N.ar    1  UNL1       -0.1421
      6 C         139.6089  139.9706  167.9835 C.ar    1  UNL1        0.1690
      7 C         140.1500  140.8967  166.9349 C.ar    1  UNL1        0.0740
      8 C         139.4802  140.9866  165.5958 C.ar    1  UNL1        0.0359
      9 C         140.0213  141.9127  164.5472 C.ar    1  UNL1        0.0204
     10 C         139.3515  142.0026  163.2081 C.ar    1  UNL1        0.0826
     11 N         139.8927  142.9287  162.1595 N.pl3   1  UNL1       -0.3004
     12 C         139.5278  144.3835  162.1831 C.3     1  UNL1        0.1231
     13 C         140.0690  145.3096  161.1346 C.3     1  UNL1        0.1636
     14 O         140.9751  144.7809  160.0624 O.3     1  UNL1       -0.3501
     15 C         141.3400  143.3261  160.0388 C.3     1  UNL1        0.1636
     16 C         140.7988  142.4001  161.0874 C.3     1  UNL1        0.1231
     17 C         140.2787  139.8807  169.3226 C.2     1  UNL1        0.2635
     18 N         139.4570  139.9257  170.5768 N.am    1  UNL1       -0.3240
     19 O         141.7702  139.7457  169.4076 O.2     1  UNL1       -0.2686
     20 H         138.4781  140.0143  170.5210 H       1  UNL1        0.1453
     21 H         139.8966  139.8666  171.4557 H       1  UNL1        0.1453
     22 C         137.6823  140.1761  160.5599 C.3     1  UNL1        0.2525
     23 O         137.4706  141.2566  161.5785 O.3     1  UNL1       -0.4701
     24 N         141.3610  141.7327  167.2255 N.pl3   1  UNL1       -0.3094
     25 H         141.3888  142.2951  168.0331 H       1  UNL1        0.1523
     26 C         142.5299  141.7119  166.2855 C.ar    1  UNL1        0.0761
     27 C         143.1620  142.9994  165.8462 C.ar    1  UNL1        0.0166
     28 C         144.3307  142.9786  164.9063 C.ar    1  UNL1       -0.0028
     29 C         144.8675  141.6704  164.4056 C.ar    1  UNL1       -0.0195
     30 C         146.0363  141.6497  163.4657 C.3     1  UNL1        0.0311
     31 C         144.2354  140.3830  164.8449 C.ar    1  UNL1        0.0267
     32 C         143.0666  140.4038  165.7849 C.ar    1  UNL1        0.1531
     33 F         142.4345  139.1163  166.2242 F       1  UNL1       -0.2029
@<TRIPOS>BOND
     1    22    23    1
     2    23     1    1
     3     1     2   ar
     4     2     3   ar
     5     3     4   ar
     6     4     5   ar
     7     5     6   ar
     8     6    17    1
     9    17    18   am
    10    17    19    2
    11     6     7   ar
    12     7    24    1
    13    24    26    1
    14    26    27   ar
    15    27    28   ar
    16    28    29   ar
    17    29    30    1
    18    29    31   ar
    19    31    32   ar
    20    32    33    1
    21     7     8   ar
    22     8     9   ar
    23     9    10   ar
    24    10    11    1
    25    11    12    1
    26    12    13    1
    27    13    14    1
    28    14    15    1
    29    15    16    1
    30    10     1   ar
    31    16    11    1
    32     8     3   ar
    33    32    26   ar
    34    18    20    1
    35    18    21    1
    36    24    25    1
@<TRIPOS>MOLECULE
*****
 33 36 0 0 0
SMALL
GASTEIGER

@<TRIPOS>ATOM
      1 C         138.9899  138.1759  164.0590 C.ar    1  UNL1        0.1534
      2 C         138.2621  138.0327  165.3628 C.ar    1  UNL1        0.0591
      3 C         138.6781  138.8527  166.5479 C.ar    1  UNL1        0.1072
      4 N         137.9503  138.7094  167.8517 N.ar    1  UNL1       -0.1477
      5 N         138.3663  139.5294  169.0369 N.ar    1  UNL1       -0.1421
      6 C         139.5100  140.4927  168.9182 C.ar    1  UNL1        0.1690
      7 C         140.2377  140.6359  167.6144 C.ar    1  UNL1        0.0740
      8 C         139.8218  139.8159  166.4293 C.ar    1  UNL1        0.0359
      9 C         140.5495  139.9591  165.1255 C.ar    1  UNL1        0.0204
     10 C         140.1336  139.1391  163.9404 C.ar    1  UNL1        0.0826
     11 N         140.8614  139.2824  162.6366 N.pl3   1  UNL1       -0.3004
     12 C         141.8789  138.2583  162.2292 C.3     1  UNL1        0.1231
     13 C         142.6067  138.4016  160.9255 C.3     1  UNL1        0.1636
     14 O         142.3169  139.5689  160.0290 O.3     1  UNL1       -0.3501
     15 C         141.2994  140.5929  160.4364 C.3     1  UNL1        0.1636
     16 C         140.5716  140.4496  161.7402 C.3     1  UNL1        0.1231
     17 C         139.9260  141.3127  170.1034 C.2     1  UNL1        0.2635
     18 N         140.3325  140.6354  171.3785 N.am    1  UNL1       -0.3240
     19 O         139.9354  142.8099  170.0134 O.2     1  UNL1       -0.2686
     20 H         140.3264  139.6527  171.4376 H       1  UNL1        0.1453
     21 H         140.6056  141.1735  172.1564 H       1  UNL1        0.1453
     22 C         137.7491  137.9758  161.7852 C.3     1  UNL1        0.2525
     23 O         138.5739  137.3559  162.8739 O.3     1  UNL1       -0.4701
     24 N         141.3814  141.5991  167.4958 N.pl3   1  UNL1       -0.3094
     25 H         142.1067  141.5865  168.1615 H       1  UNL1        0.1523
     26 C         141.4202  142.5816  166.3630 C.ar    1  UNL1        0.0761
     27 C         140.1877  143.3551  165.9986 C.ar    1  UNL1        0.0166
     28 C         140.2264  144.3375  164.8658 C.ar    1  UNL1       -0.0028
     29 C         141.4976  144.5465  164.0973 C.ar    1  UNL1       -0.0195
     30 C         141.5363  145.5290  162.9645 C.3     1  UNL1        0.0311
     31 C         142.7300  143.7730  164.4617 C.ar    1  UNL1        0.0267
     32 C         142.6913  142.7906  165.5945 C.ar    1  UNL1        0.1531
     33 F         143.9238  142.0171  165.9589 F       1  UNL1       -0.2029
@<TRIPOS>BOND
     1    22    23    1
     2    23     1    1
     3     1     2   ar
     4     2     3   ar
     5     3     4   ar
     6     4     5   ar
     7     5     6   ar
     8     6    17    1
     9    17    18   am
    10    17    19    2
    11     6     7   ar
    12     7    24    1
    13    24    26    1
    14    26    27   ar
    15    27    28   ar
    16    28    29   ar
    17    29    30    1
    18    29    31   ar
    19    31    32   ar
    20    32    33    1
    21     7     8   ar
    22     8     9   ar
    23     9    10   ar
    24    10    11    1
    25    11    12    1
    26    12    13    1
    27    13    14    1
    28    14    15    1
    29    15    16    1
    30    10     1   ar
    31    16    11    1
    32     8     3   ar
    33    32    26   ar
    34    18    20    1
    35    18    21    1
    36    24    25    1
@<TRIPOS>MOLECULE
*****
 33 36 0 0 0
SMALL
GASTEIGER

@<TRIPOS>ATOM
      1 C         142.2556  139.7067  167.5948 C.ar    1  UNL1        0.1534
      2 C         142.7267  138.8060  166.4918 C.ar    1  UNL1        0.0591
      3 C         142.0018  138.7858  165.1787 C.ar    1  UNL1        0.1072
      4 N         142.4729  137.8850  164.0757 N.ar    1  UNL1       -0.1477
      5 N         141.7479  137.8648  162.7626 N.ar    1  UNL1       -0.1421
      6 C         140.5519  138.7455  162.5527 C.ar    1  UNL1        0.1690
      7 C         140.0808  139.6462  163.6557 C.ar    1  UNL1        0.0740
      8 C         140.8057  139.6664  164.9688 C.ar    1  UNL1        0.0359
      9 C         140.3347  140.5671  166.0718 C.ar    1  UNL1        0.0204
     10 C         141.0596  140.5873  167.3848 C.ar    1  UNL1        0.0826
     11 N         140.5885  141.4881  168.4879 N.pl3   1  UNL1       -0.3004
     12 C         141.0501  142.9143  168.5402 C.3     1  UNL1        0.1231
     13 C         140.5791  143.8151  169.6432 C.3     1  UNL1        0.1636
     14 O         139.6463  143.2897  170.6939 O.3     1  UNL1       -0.3501
     15 C         139.1846  141.8634  170.6416 C.3     1  UNL1        0.1636
     16 C         139.6558  140.9626  169.5385 C.3     1  UNL1        0.1231
     17 C         139.8269  138.7253  161.2397 C.2     1  UNL1        0.2635
     18 N         140.5950  138.8464  159.9569 N.am    1  UNL1       -0.3240
     19 O         138.3339  138.5839  161.2093 O.2     1  UNL1       -0.2686
     20 H         141.5750  138.9392  159.9768 H       1  UNL1        0.1453
     21 H         140.1193  138.8332  159.0951 H       1  UNL1        0.1453
     22 C         142.5909  138.7692  169.9945 C.3     1  UNL1        0.2525
     23 O         142.9806  139.7269  168.9078 O.3     1  UNL1       -0.4701
     24 N         138.8848  140.5267  163.4457 N.pl3   1  UNL1       -0.3094
     25 H         137.9783  140.1646  163.5739 H       1  UNL1        0.1523
     26 C         139.0698  141.9591  163.0404 C.ar    1  UNL1        0.0761
     27 C         140.0485  142.3123  161.9599 C.ar    1  UNL1        0.0166
     28 C         140.2336  143.7445  161.5545 C.ar    1  UNL1       -0.0028
     29 C         139.4400  144.8237  162.2297 C.ar    1  UNL1       -0.0195
     30 C         139.6250  146.2559  161.8243 C.3     1  UNL1        0.0311
     31 C         138.4613  144.4704  163.3102 C.ar    1  UNL1        0.0267
     32 C         138.2763  143.0381  163.7155 C.ar    1  UNL1        0.1531
     33 F         137.2976  142.6849  164.7960 F       1  UNL1       -0.2029
@<TRIPOS>BOND
     1    22    23    1
     2    23     1    1
     3     1     2   ar
     4     2     3   ar
     5     3     4   ar
     6     4     5   ar
     7     5     6   ar
     8     6    17    1
     9    17    18   am
    10    17    19    2
    11     6     7   ar
    12     7    24    1
    13    24    26    1
    14    26    27   ar
    15    27    28   ar
    16    28    29   ar
    17    29    30    1
    18    29    31   ar
    19    31    32   ar
    20    32    33    1
    21     7     8   ar
    22     8     9   ar
    23     9    10   ar
    24    10    11    1
    25    11    12    1
    26    12    13    1
    27    13    14    1
    28    14    15    1
    29    15    16    1
    30    10     1   ar
    31    16    11    1
    32     8     3   ar
    33    32    26   ar
    34    18    20    1
    35    18    21    1
    36    24    25    1
@<TRIPOS>MOLECULE
*****
 33 36 0 0 0
SMALL
GASTEIGER

@<TRIPOS>ATOM
      1 C         139.1123  138.9900  166.6380 C.ar    1  UNL1        0.1534
      2 C         138.9125  138.1974  165.3803 C.ar    1  UNL1        0.0591
      3 C         139.9932  138.1549  164.3409 C.ar    1  UNL1        0.1072
      4 N         139.7933  137.3623  163.0831 N.ar    1  UNL1       -0.1477
      5 N         140.8740  137.3198  162.0437 N.ar    1  UNL1       -0.1421
      6 C         142.1545  138.0700  162.2621 C.ar    1  UNL1        0.1690
      7 C         142.3543  138.8625  163.5198 C.ar    1  UNL1        0.0740
      8 C         141.2736  138.9050  164.5592 C.ar    1  UNL1        0.0359
      9 C         141.4734  139.6976  165.8169 C.ar    1  UNL1        0.0204
     10 C         140.3928  139.7400  166.8563 C.ar    1  UNL1        0.0826
     11 N         140.5926  140.5327  168.1141 N.pl3   1  UNL1       -0.3004
     12 C         140.3609  142.0147  168.1114 C.3     1  UNL1        0.1231
     13 C         140.5608  142.8073  169.3691 C.3     1  UNL1        0.1636
     14 O         140.9924  142.1179  170.6295 O.3     1  UNL1       -0.3501
     15 C         141.2241  140.6359  170.6322 C.3     1  UNL1        0.1636
     16 C         141.0242  139.8433  169.3744 C.3     1  UNL1        0.1231
     17 C         143.2352  138.0275  161.2227 C.2     1  UNL1        0.2635
     18 N         143.4381  136.7884  160.4019 N.am    1  UNL1       -0.3240
     19 O         144.1129  139.2240  161.0040 O.2     1  UNL1       -0.2686
     20 H         142.8620  136.0031  160.5455 H       1  UNL1        0.1453
     21 H         144.1473  136.7605  159.7197 H       1  UNL1        0.1453
     22 C         136.9899  137.9541  167.7208 C.3     1  UNL1        0.2525
     23 O         138.0316  139.0325  167.6774 O.3     1  UNL1       -0.4701
     24 N         143.6348  139.6126  163.7381 N.pl3   1  UNL1       -0.3094
     25 H         144.4839  139.1220  163.8253 H       1  UNL1        0.1523
     26 C         143.6216  141.1102  163.8236 C.ar    1  UNL1        0.0761
     27 C         144.4391  141.8089  164.8693 C.ar    1  UNL1        0.0166
     28 C         144.4259  143.3063  164.9548 C.ar    1  UNL1       -0.0028
     29 C         143.5952  144.1052  163.9947 C.ar    1  UNL1       -0.0195
     30 C         143.5820  145.6026  164.0802 C.3     1  UNL1        0.0311
     31 C         142.7777  143.4065  162.9490 C.ar    1  UNL1        0.0267
     32 C         142.7909  141.9089  162.8635 C.ar    1  UNL1        0.1531
     33 F         141.9733  141.2102  161.8178 F       1  UNL1       -0.2029
@<TRIPOS>BOND
     1    22    23    1
     2    23     1    1
     3     1     2   ar
     4     2     3   ar
     5     3     4   ar
     6     4     5   ar
     7     5     6   ar
     8     6    17    1
     9    17    18   am
    10    17    19    2
    11     6     7   ar
    12     7    24    1
    13    24    26    1
    14    26    27   ar
    15    27    28   ar
    16    28    29   ar
    17    29    30    1
    18    29    31   ar
    19    31    32   ar
    20    32    33    1
    21     7     8   ar
    22     8     9   ar
    23     9    10   ar
    24    10    11    1
    25    11    12    1
    26    12    13    1
    27    13    14    1
    28    14    15    1
    29    15    16    1
    30    10     1   ar
    31    16    11    1
    32     8     3   ar
    33    32    26   ar
    34    18    20    1
    35    18    21    1
    36    24    25    1
@<TRIPOS>MOLECULE
*****
 33 36 0 0 0
SMALL
GASTEIGER

@<TRIPOS>ATOM
      1 C         143.8061  142.1649  164.5420 C.ar    1  UNL1        0.1534
      2 C         143.6667  142.6428  165.9569 C.ar    1  UNL1        0.0591
      3 C         142.6750  141.9910  166.8744 C.ar    1  UNL1        0.1072
      4 N         142.5355  142.4690  168.2894 N.ar    1  UNL1       -0.1477
      5 N         141.5438  141.8172  169.2069 N.ar    1  UNL1       -0.1421
      6 C         140.6916  140.6875  168.7094 C.ar    1  UNL1        0.1690
      7 C         140.8311  140.2096  167.2944 C.ar    1  UNL1        0.0740
      8 C         141.8228  140.8614  166.3770 C.ar    1  UNL1        0.0359
      9 C         141.9623  140.3834  164.9620 C.ar    1  UNL1        0.0204
     10 C         142.9540  141.0352  164.0445 C.ar    1  UNL1        0.0826
     11 N         143.0934  140.5572  162.6295 N.pl3   1  UNL1       -0.3004
     12 C         144.0189  139.4210  162.3095 C.3     1  UNL1        0.1231
     13 C         144.1584  138.9430  160.8946 C.3     1  UNL1        0.1636
     14 O         143.3724  139.6013  159.7996 O.3     1  UNL1       -0.3501
     15 C         142.4469  140.7375  160.1196 C.3     1  UNL1        0.1636
     16 C         142.3074  141.2155  161.5346 C.3     1  UNL1        0.1231
     17 C         139.6999  140.0357  169.6268 C.2     1  UNL1        0.2635
     18 N         140.0553  139.7914  171.0636 N.am    1  UNL1       -0.3240
     19 O         138.3530  139.6283  169.1077 O.2     1  UNL1       -0.2686
     20 H         140.9394  140.0588  171.4043 H       1  UNL1        0.1453
     21 H         139.4044  139.3636  171.6657 H       1  UNL1        0.1453
     22 C         144.3814  143.9808  162.7752 C.3     1  UNL1        0.2525
     23 O         144.7978  142.8167  163.6245 O.3     1  UNL1       -0.4701
     24 N         139.9789  139.0799  166.7970 N.pl3   1  UNL1       -0.3094
     25 H         139.8238  138.2923  167.3670 H       1  UNL1        0.1523
     26 C         139.3630  139.1501  165.4310 C.ar    1  UNL1        0.0761
     27 C         138.4770  140.3042  165.0662 C.ar    1  UNL1        0.0166
     28 C         137.8611  140.3744  163.7003 C.ar    1  UNL1       -0.0028
     29 C         138.1313  139.2906  162.6991 C.ar    1  UNL1       -0.0195
     30 C         137.5155  139.3609  161.3332 C.3     1  UNL1        0.0311
     31 C         139.0174  138.1366  163.0638 C.ar    1  UNL1        0.0267
     32 C         139.6333  138.0663  164.4298 C.ar    1  UNL1        0.1531
     33 F         140.5194  136.9123  164.7946 F       1  UNL1       -0.2029
@<TRIPOS>BOND
     1    22    23    1
     2    23     1    1
     3     1     2   ar
     4     2     3   ar
     5     3     4   ar
     6     4     5   ar
     7     5     6   ar
     8     6    17    1
     9    17    18   am
    10    17    19    2
    11     6     7   ar
    12     7    24    1
    13    24    26    1
    14    26    27   ar
    15    27    28   ar
    16    28    29   ar
    17    29    30    1
    18    29    31   ar
    19    31    32   ar
    20    32    33    1
    21     7     8   ar
    22     8     9   ar
    23     9    10   ar
    24    10    11    1
    25    11    12    1
    26    12    13    1
    27    13    14    1
    28    14    15    1
    29    15    16    1
    30    10     1   ar
    31    16    11    1
    32     8     3   ar
    33    32    26   ar
    34    18    20    1
    35    18    21    1
    36    24    25    1
@<TRIPOS>MOLECULE
*****
 33 36 0 0 0
SMALL
GASTEIGER

@<TRIPOS>ATOM
      1 C         143.0648  143.7742  164.3509 C.ar    1  UNL1        0.1534
      2 C         143.6318  143.2554  165.6390 C.ar    1  UNL1        0.0591
      3 C         142.7811  142.4223  166.5513 C.ar    1  UNL1        0.1072
      4 N         143.3482  141.9035  167.8395 N.ar    1  UNL1       -0.1477
      5 N         142.4976  141.0704  168.7518 N.ar    1  UNL1       -0.1421
      6 C         141.0798  140.7561  168.3759 C.ar    1  UNL1        0.1690
      7 C         140.5127  141.2749  167.0878 C.ar    1  UNL1        0.0740
      8 C         141.3634  142.1080  166.1755 C.ar    1  UNL1        0.0359
      9 C         140.7964  142.6268  164.8874 C.ar    1  UNL1        0.0204
     10 C         141.6471  143.4599  163.9751 C.ar    1  UNL1        0.0826
     11 N         141.0800  143.9788  162.6869 N.pl3   1  UNL1       -0.3004
     12 C         140.5432  145.3775  162.6133 C.3     1  UNL1        0.1231
     13 C         139.9761  145.8963  161.3252 C.3     1  UNL1        0.1636
     14 O         139.9458  145.0164  160.1107 O.3     1  UNL1       -0.3501
     15 C         140.4826  143.6177  160.1843 C.3     1  UNL1        0.1636
     16 C         141.0497  143.0989  161.4725 C.3     1  UNL1        0.1231
     17 C         140.2291  139.9230  169.2882 C.2     1  UNL1        0.2635
     18 N         140.7542  139.5057  170.6299 N.am    1  UNL1       -0.3240
     19 O         138.8534  139.5072  168.8588 O.2     1  UNL1       -0.2686
     20 H         141.6572  139.7787  170.9118 H       1  UNL1        0.1453
     21 H         140.1959  138.9589  171.2287 H       1  UNL1        0.1453
     22 C         144.5325  143.9911  162.2181 C.3     1  UNL1        0.2525
     23 O         143.9155  144.6073  163.4386 O.3     1  UNL1       -0.4701
     24 N         139.0950  140.9607  166.7120 N.pl3   1  UNL1       -0.3094
     25 H         138.3570  141.2325  167.3042 H       1  UNL1        0.1523
     26 C         138.8017  140.2322  165.4339 C.ar    1  UNL1        0.0761
     27 C         139.2904  138.8270  165.2424 C.ar    1  UNL1        0.0166
     28 C         138.9972  138.0986  163.9645 C.ar    1  UNL1       -0.0028
     29 C         138.2152  138.7753  162.8778 C.ar    1  UNL1       -0.0195
     30 C         137.9220  138.0468  161.5999 C.3     1  UNL1        0.0311
     31 C         137.7265  140.1805  163.0693 C.ar    1  UNL1        0.0267
     32 C         138.0198  140.9089  164.3474 C.ar    1  UNL1        0.1531
     33 F         137.5311  142.3141  164.5389 F       1  UNL1       -0.2029
@<TRIPOS>BOND
     1    22    23    1
     2    23     1    1
     3     1     2   ar
     4     2     3   ar
     5     3     4   ar
     6     4     5   ar
     7     5     6   ar
     8     6    17    1
     9    17    18   am
    10    17    19    2
    11     6     7   ar
    12     7    24    1
    13    24    26    1
    14    26    27   ar
    15    27    28   ar
    16    28    29   ar
    17    29    30    1
    18    29    31   ar
    19    31    32   ar
    20    32    33    1
    21     7     8   ar
    22     8     9   ar
    23     9    10   ar
    24    10    11    1
    25    11    12    1
    26    12    13    1
    27    13    14    1
    28    14    15    1
    29    15    16    1
    30    10     1   ar
    31    16    11    1
    32     8     3   ar
    33    32    26   ar
    34    18    20    1
    35    18    21    1
    36    24    25    1
@<TRIPOS>MOLECULE
*****
 33 36 0 0 0
SMALL
GASTEIGER

@<TRIPOS>ATOM
      1 C         143.0172  142.3241  167.2652 C.ar    1  UNL1        0.1534
      2 C         143.9284  142.8591  166.2006 C.ar    1  UNL1        0.0591
      3 C         143.3560  143.3798  164.9156 C.ar    1  UNL1        0.1072
      4 N         144.2672  143.9149  163.8509 N.ar    1  UNL1       -0.1477
      5 N         143.6948  144.4356  162.5660 N.ar    1  UNL1       -0.1421
      6 C         142.2111  144.4211  162.3456 C.ar    1  UNL1        0.1690
      7 C         141.2999  143.8861  163.4102 C.ar    1  UNL1        0.0740
      8 C         141.8724  143.3654  164.6952 C.ar    1  UNL1        0.0359
      9 C         140.9612  142.8303  165.7598 C.ar    1  UNL1        0.0204
     10 C         141.5336  142.3096  167.0448 C.ar    1  UNL1        0.0826
     11 N         140.6224  141.7745  168.1094 N.pl3   1  UNL1       -0.3004
     12 C         139.9640  140.4386  167.9311 C.3     1  UNL1        0.1231
     13 C         139.0528  139.9035  168.9956 C.3     1  UNL1        0.1636
     14 O         138.7999  140.7043  170.2385 O.3     1  UNL1       -0.3501
     15 C         139.4583  142.0403  170.4168 C.3     1  UNL1        0.1636
     16 C         140.3695  142.5754  169.3522 C.3     1  UNL1        0.1231
     17 C         141.6387  144.9418  161.0606 C.2     1  UNL1        0.2635
     18 N         142.2703  144.5682  159.7523 N.am    1  UNL1       -0.3240
     19 O         140.4346  145.8361  161.0838 O.2     1  UNL1       -0.2686
     20 H         143.0606  143.9812  159.7371 H       1  UNL1        0.1453
     21 H         141.8946  144.9099  158.9089 H       1  UNL1        0.1453
     22 C         143.8735  142.7466  169.6814 C.3     1  UNL1        0.2525
     23 O         143.5897  141.8034  168.5502 O.3     1  UNL1       -0.4701
     24 N         139.8163  143.8717  163.1898 N.pl3   1  UNL1       -0.3094
     25 H         139.2822  144.6760  163.3822 H       1  UNL1        0.1523
     26 C         139.1463  142.6317  162.6762 C.ar    1  UNL1        0.0761
     27 C         139.6644  141.9560  161.4413 C.ar    1  UNL1        0.0166
     28 C         138.9946  140.7161  160.9277 C.ar    1  UNL1       -0.0028
     29 C         137.8065  140.1518  161.6490 C.ar    1  UNL1       -0.0195
     30 C         137.1366  138.9119  161.1354 C.3     1  UNL1        0.0311
     31 C         137.2884  140.8275  162.8839 C.ar    1  UNL1        0.0267
     32 C         137.9584  142.0675  163.3975 C.ar    1  UNL1        0.1531
     33 F         137.4403  142.7432  164.6324 F       1  UNL1       -0.2029
@<TRIPOS>BOND
     1    22    23    1
     2    23     1    1
     3     1     2   ar
     4     2     3   ar
     5     3     4   ar
     6     4     5   ar
     7     5     6   ar
     8     6    17    1
     9    17    18   am
    10    17    19    2
    11     6     7   ar
    12     7    24    1
    13    24    26    1
    14    26    27   ar
    15    27    28   ar
    16    28    29   ar
    17    29    30    1
    18    29    31   ar
    19    31    32   ar
    20    32    33    1
    21     7     8   ar
    22     8     9   ar
    23     9    10   ar
    24    10    11    1
    25    11    12    1
    26    12    13    1
    27    13    14    1
    28    14    15    1
    29    15    16    1
    30    10     1   ar
    31    16    11    1
    32     8     3   ar
    33    32    26   ar
    34    18    20    1
    35    18    21    1
    36    24    25    1
@<TRIPOS>MOLECULE
*****
 33 36 0 0 0
SMALL
GASTEIGER

@<TRIPOS>ATOM
      1 C         139.0270  143.4144  163.9897 C.ar    1  UNL1        0.1534
      2 C         139.3877  143.8007  165.3934 C.ar    1  UNL1        0.0591
      3 C         139.9745  142.7814  166.3245 C.ar    1  UNL1        0.1072
      4 N         140.3353  143.1678  167.7283 N.ar    1  UNL1       -0.1477
      5 N         140.9221  142.1485  168.6594 N.ar    1  UNL1       -0.1421
      6 C         141.1481  140.7430  168.1866 C.ar    1  UNL1        0.1690
      7 C         140.7874  140.3568  166.7828 C.ar    1  UNL1        0.0740
      8 C         140.2006  141.3760  165.8518 C.ar    1  UNL1        0.0359
      9 C         139.8398  140.9897  164.4480 C.ar    1  UNL1        0.0204
     10 C         139.2530  142.0089  163.5169 C.ar    1  UNL1        0.0826
     11 N         138.8923  141.6226  162.1131 N.pl3   1  UNL1       -0.3004
     12 C         137.8253  140.5971  161.8681 C.3     1  UNL1        0.1231
     13 C         137.4646  140.2108  160.4644 C.3     1  UNL1        0.1636
     14 O         138.1708  140.8500  159.3055 O.3     1  UNL1       -0.3501
     15 C         139.2377  141.8754  159.5505 C.3     1  UNL1        0.1636
     16 C         139.5985  142.2618  160.9543 C.3     1  UNL1        0.1231
     17 C         141.7349  139.7238  169.1177 C.2     1  UNL1        0.2635
     18 N         141.0372  139.3931  170.4037 N.am    1  UNL1       -0.3240
     19 O         143.0194  139.0353  168.7627 O.2     1  UNL1       -0.2686
     20 H         140.1942  139.8451  170.6367 H       1  UNL1        0.1453
     21 H         141.4223  138.7242  171.0148 H       1  UNL1        0.1453
     22 C         139.3095  145.5117  162.4825 C.3     1  UNL1        0.2525
     23 O         138.4402  144.4336  163.0586 O.3     1  UNL1       -0.4701
     24 N         141.0134  138.9513  166.3101 N.pl3   1  UNL1       -0.3094
     25 H         140.6700  138.1936  166.8366 H       1  UNL1        0.1523
     26 C         141.7628  138.7002  165.0351 C.ar    1  UNL1        0.0761
     27 C         143.1387  139.2680  164.8496 C.ar    1  UNL1        0.0166
     28 C         143.8881  139.0169  163.5748 C.ar    1  UNL1       -0.0028
     29 C         143.2616  138.1980  162.4853 C.ar    1  UNL1       -0.0195
     30 C         144.0109  137.9469  161.2104 C.3     1  UNL1        0.0311
     31 C         141.8857  137.6302  162.6708 C.ar    1  UNL1        0.0267
     32 C         141.1363  137.8813  163.9458 C.ar    1  UNL1        0.1531
     33 F         139.7604  137.3134  164.1313 F       1  UNL1       -0.2029
@<TRIPOS>BOND
     1    22    23    1
     2    23     1    1
     3     1     2   ar
     4     2     3   ar
     5     3     4   ar
     6     4     5   ar
     7     5     6   ar
     8     6    17    1
     9    17    18   am
    10    17    19    2
    11     6     7   ar
    12     7    24    1
    13    24    26    1
    14    26    27   ar
    15    27    28   ar
    16    28    29   ar
    17    29    30    1
    18    29    31   ar
    19    31    32   ar
    20    32    33    1
    21     7     8   ar
    22     8     9   ar
    23     9    10   ar
    24    10    11    1
    25    11    12    1
    26    12    13    1
    27    13    14    1
    28    14    15    1
    29    15    16    1
    30    10     1   ar
    31    16    11    1
    32     8     3   ar
    33    32    26   ar
    34    18    20    1
    35    18    21    1
    36    24    25    1
