@<TRIPOS>MOLECULE
*****
 41 45 0 0 0
SMALL
GASTEIGER

@<TRIPOS>ATOM
      1 C         140.8837  140.1140  165.3503 C.3     1  UNL1        0.0776
      2 C         139.8302  140.7458  158.9284 C.ar    1  UNL1        0.0225
      3 C         141.2050  140.3389  158.4876 C.ar    1  UNL1        0.0032
      4 C         142.2406  139.9684  159.5076 C.ar    1  UNL1        0.0193
      5 C         141.9014  140.0048  160.9682 C.ar    1  UNL1        0.0844
      6 N         142.9370  139.6343  161.9882 N.ar    1  UNL1       -0.2119
      7 C         142.5978  139.6707  163.4488 C.ar    1  UNL1        0.2211
      8 C         141.2229  140.0776  163.8896 C.ar    1  UNL1        0.0373
      9 C         140.1873  140.4481  162.8697 C.ar    1  UNL1        0.0022
     10 C         140.5266  140.4117  161.4090 C.ar    1  UNL1        0.0177
     11 C         139.4910  140.7822  160.3890 C.ar    1  UNL1        0.0031
     12 N         137.5033  140.3561  157.8404 N.2     1  UNL1       -0.0813
     13 C         138.7946  141.1162  157.9084 C.2     1  UNL1        0.1400
     14 C         136.8123  140.7074  155.3606 C.3     1  UNL1        0.2885
     15 O         136.4677  140.7266  156.8205 O.2     1  UNL1       -0.3730
     16 O         143.6334  139.3003  164.4688 O.3     1  UNL1       -0.4563
     17 C         145.0675  139.6845  164.2553 C.3     1  UNL1        0.2542
     18 C         139.7558  139.2786  165.8794 C.ar    1  UNL1       -0.0157
     19 C         139.0011  139.7223  167.0974 C.ar    1  UNL1       -0.0039
     20 C         137.8732  138.8869  167.6265 C.ar    1  UNL1       -0.0003
     21 C         137.5001  137.6078  166.9376 C.ar    1  UNL1       -0.0000
     22 C         138.2548  137.1641  165.7196 C.ar    1  UNL1       -0.0003
     23 C         139.3827  137.9995  165.1905 C.ar    1  UNL1       -0.0039
     24 C         141.6724  140.9859  166.2819 C.3     1  UNL1        0.1158
     25 O         142.2727  139.7659  166.9154 O.3     1  UNL1       -0.3820
     26 H         141.5782  139.1065  167.0692 H       1  UNL1        0.2107
     27 C         141.0720  142.2058  165.6484 C.ar    1  UNL1        0.0024
     28 C         139.6075  142.4891  165.8060 C.ar    1  UNL1       -0.0020
     29 C         139.0071  143.7091  165.1725 C.ar    1  UNL1       -0.0002
     30 C         139.8713  144.6458  164.3815 C.ar    1  UNL1       -0.0000
     31 C         141.3359  144.3625  164.2239 C.ar    1  UNL1       -0.0002
     32 C         142.2001  145.2992  163.4329 C.ar    1  UNL1       -0.0000
     33 C         143.6646  145.0159  163.2753 C.ar    1  UNL1       -0.0000
     34 C         144.2650  143.7960  163.9088 C.ar    1  UNL1       -0.0000
     35 C         143.4008  142.8593  164.6998 C.ar    1  UNL1       -0.0002
     36 C         141.9362  143.1425  164.8574 C.ar    1  UNL1       -0.0018
     37 C         142.4610  141.8577  167.2135 C.3     1  UNL1        0.0491
     38 C         142.5712  141.4971  168.6653 C.3     1  UNL1        0.0750
     39 N         141.3308  141.2910  169.4832 N.3     1  UNL1       -0.2702
     40 C         141.1353  140.0104  170.2395 C.3     1  UNL1        0.0897
     41 C         140.2858  142.3653  169.5446 C.3     1  UNL1        0.0897
@<TRIPOS>BOND
     1    14    15    1
     2    15    12    1
     3    12    13    2
     4    13     2    1
     5     2     3   ar
     6     3     4   ar
     7     4     5   ar
     8     5     6   ar
     9     6     7   ar
    10     7    16    1
    11    16    17    1
    12     7     8   ar
    13     1     8    1
    14     1    18    1
    15    18    19   ar
    16    19    20   ar
    17    20    21   ar
    18    21    22   ar
    19    22    23   ar
    20     1    24    1
    21    24    25    1
    22    24    37    1
    23    37    38    1
    24    38    39    1
    25    39    40    1
    26    39    41    1
    27    24    27    1
    28    27    28   ar
    29    28    29   ar
    30    29    30   ar
    31    30    31   ar
    32    31    32   ar
    33    32    33   ar
    34    33    34   ar
    35    34    35   ar
    36    35    36   ar
    37     8     9   ar
    38     9    10   ar
    39    10    11   ar
    40    11     2   ar
    41    10     5   ar
    42    23    18   ar
    43    36    27   ar
    44    36    31   ar
    45    25    26    1
@<TRIPOS>MOLECULE
*****
 41 45 0 0 0
SMALL
GASTEIGER

@<TRIPOS>ATOM
      1 C         139.7617  140.7632  164.6361 C.3     1  UNL1        0.0776
      2 C         142.6798  142.4377  170.2424 C.ar    1  UNL1        0.0225
      3 C         141.8590  141.5540  171.1342 C.ar    1  UNL1        0.0032
      4 C         140.7830  140.6888  170.5481 C.ar    1  UNL1        0.0193
      5 C         140.5276  140.7074  169.0701 C.ar    1  UNL1        0.0844
      6 N         139.4516  139.8423  168.4839 N.ar    1  UNL1       -0.2119
      7 C         139.1962  139.8609  167.0060 C.ar    1  UNL1        0.2211
      8 C         140.0170  140.7446  166.1141 C.ar    1  UNL1        0.0373
      9 C         141.0931  141.6098  166.7003 C.ar    1  UNL1        0.0022
     10 C         141.3484  141.5911  168.1783 C.ar    1  UNL1        0.0177
     11 C         142.4244  142.4563  168.7645 C.ar    1  UNL1        0.0031
     12 N         145.1366  143.2825  170.2430 N.2     1  UNL1       -0.0813
     13 C         143.7558  143.3028  170.8286 C.2     1  UNL1        0.1400
     14 C         145.8464  145.3792  171.6033 C.3     1  UNL1        0.2885
     15 O         146.2127  144.1476  170.8292 O.2     1  UNL1       -0.3730
     16 O         138.1202  138.9957  166.4198 O.3     1  UNL1       -0.4563
     17 C         137.3011  138.1102  167.3113 C.3     1  UNL1        0.2542
     18 C         139.3816  142.0454  163.9567 C.ar    1  UNL1       -0.0157
     19 C         140.1177  143.3120  164.2793 C.ar    1  UNL1       -0.0039
     20 C         139.7377  144.5941  163.5999 C.ar    1  UNL1       -0.0003
     21 C         138.6215  144.6098  162.5980 C.ar    1  UNL1       -0.0000
     22 C         137.8854  143.3433  162.2754 C.ar    1  UNL1       -0.0003
     23 C         138.2654  142.0611  162.9548 C.ar    1  UNL1       -0.0039
     24 C         139.8864  139.4996  163.8375 C.3     1  UNL1        0.1158
     25 O         138.4019  139.4887  163.6229 O.3     1  UNL1       -0.3820
     26 H         137.9529  139.6912  164.4586 H       1  UNL1        0.2107
     27 C         141.3710  139.5106  164.0520 C.ar    1  UNL1        0.0024
     28 C         141.9721  138.7203  165.1763 C.ar    1  UNL1       -0.0020
     29 C         143.4567  138.7312  165.3909 C.ar    1  UNL1       -0.0002
     30 C         144.3400  139.5325  164.4812 C.ar    1  UNL1       -0.0000
     31 C         143.7389  140.3228  163.3569 C.ar    1  UNL1       -0.0002
     32 C         144.6223  141.1241  162.4471 C.ar    1  UNL1       -0.0000
     33 C         144.0211  141.9144  161.3229 C.ar    1  UNL1       -0.0000
     34 C         142.5366  141.9034  161.1083 C.ar    1  UNL1       -0.0000
     35 C         141.6532  141.1022  162.0180 C.ar    1  UNL1       -0.0002
     36 C         142.2543  140.3118  163.1424 C.ar    1  UNL1       -0.0018
     37 C         140.0112  138.2361  163.0389 C.3     1  UNL1        0.0491
     38 C         139.0749  137.9754  161.8963 C.3     1  UNL1        0.0750
     39 N         139.2297  138.7342  160.6117 N.3     1  UNL1       -0.2702
     40 C         138.1470  139.6674  160.1567 C.3     1  UNL1        0.0897
     41 C         140.4671  138.5599  159.7821 C.3     1  UNL1        0.0897
@<TRIPOS>BOND
     1    14    15    1
     2    15    12    1
     3    12    13    2
     4    13     2    1
     5     2     3   ar
     6     3     4   ar
     7     4     5   ar
     8     5     6   ar
     9     6     7   ar
    10     7    16    1
    11    16    17    1
    12     7     8   ar
    13     1     8    1
    14     1    18    1
    15    18    19   ar
    16    19    20   ar
    17    20    21   ar
    18    21    22   ar
    19    22    23   ar
    20     1    24    1
    21    24    25    1
    22    24    37    1
    23    37    38    1
    24    38    39    1
    25    39    40    1
    26    39    41    1
    27    24    27    1
    28    27    28   ar
    29    28    29   ar
    30    29    30   ar
    31    30    31   ar
    32    31    32   ar
    33    32    33   ar
    34    33    34   ar
    35    34    35   ar
    36    35    36   ar
    37     8     9   ar
    38     9    10   ar
    39    10    11   ar
    40    11     2   ar
    41    10     5   ar
    42    23    18   ar
    43    36    27   ar
    44    36    31   ar
    45    25    26    1
@<TRIPOS>MOLECULE
*****
 41 45 0 0 0
SMALL
GASTEIGER

@<TRIPOS>ATOM
      1 C         140.2849  140.9004  165.4404 C.3     1  UNL1        0.0776
      2 C         141.7674  141.5636  159.1070 C.ar    1  UNL1        0.0225
      3 C         140.8759  142.7409  158.8440 C.ar    1  UNL1        0.0032
      4 C         140.0445  143.3146  159.9529 C.ar    1  UNL1        0.0193
      5 C         140.1046  142.7111  161.3247 C.ar    1  UNL1        0.0844
      6 N         139.2732  143.2848  162.4336 N.ar    1  UNL1       -0.2119
      7 C         139.3333  142.6813  163.8055 C.ar    1  UNL1        0.2211
      8 C         140.2248  141.5039  164.0686 C.ar    1  UNL1        0.0373
      9 C         141.0562  140.9302  162.9597 C.ar    1  UNL1        0.0022
     10 C         140.9961  141.5338  161.5877 C.ar    1  UNL1        0.0177
     11 C         141.8275  140.9600  160.4789 C.ar    1  UNL1        0.0031
     12 N         143.9968  140.5217  158.2740 N.2     1  UNL1       -0.0813
     13 C         142.5988  140.9898  157.9981 C.2     1  UNL1        0.1400
     14 C         145.5176  140.8610  156.1950 C.3     1  UNL1        0.2885
     15 O         144.8282  139.9479  157.1651 O.2     1  UNL1       -0.3730
     16 O         138.5019  143.2550  164.9144 O.3     1  UNL1       -0.4563
     17 C         138.4695  144.7380  165.1373 C.3     1  UNL1        0.2542
     18 C         139.4475  139.7000  165.7691 C.ar    1  UNL1       -0.0157
     19 C         138.5507  139.7175  166.9713 C.ar    1  UNL1       -0.0039
     20 C         137.7134  138.5172  167.3000 C.ar    1  UNL1       -0.0003
     21 C         137.7728  137.2993  166.4264 C.ar    1  UNL1       -0.0000
     22 C         138.6696  137.2818  165.2241 C.ar    1  UNL1       -0.0003
     23 C         139.5070  138.4821  164.8955 C.ar    1  UNL1       -0.0039
     24 C         141.1823  141.4972  166.4837 C.3     1  UNL1        0.1158
     25 O         140.0614  142.3826  166.9414 O.3     1  UNL1       -0.3820
     26 H         139.6143  142.7634  166.1694 H       1  UNL1        0.2107
     27 C         142.3032  140.6117  166.0260 C.ar    1  UNL1        0.0024
     28 C         142.3480  139.1755  166.4561 C.ar    1  UNL1       -0.0020
     29 C         143.4690  138.2900  165.9984 C.ar    1  UNL1       -0.0002
     30 C         144.5451  138.8409  165.1105 C.ar    1  UNL1       -0.0000
     31 C         144.5004  140.2772  164.6804 C.ar    1  UNL1       -0.0002
     32 C         145.5766  140.8281  163.7925 C.ar    1  UNL1       -0.0000
     33 C         145.5318  142.2644  163.3624 C.ar    1  UNL1       -0.0000
     34 C         144.4109  143.1498  163.8201 C.ar    1  UNL1       -0.0000
     35 C         143.3347  142.5989  164.7079 C.ar    1  UNL1       -0.0002
     36 C         143.3794  141.1626  165.1381 C.ar    1  UNL1       -0.0018
     37 C         142.0797  142.0939  167.5270 C.3     1  UNL1        0.0491
     38 C         141.5631  142.3285  168.9155 C.3     1  UNL1        0.0750
     39 N         140.9163  141.2079  169.6744 N.3     1  UNL1       -0.2702
     40 C         141.6775  139.9422  169.9366 C.3     1  UNL1        0.0897
     41 C         139.5085  141.3530  170.1712 C.3     1  UNL1        0.0897
@<TRIPOS>BOND
     1    14    15    1
     2    15    12    1
     3    12    13    2
     4    13     2    1
     5     2     3   ar
     6     3     4   ar
     7     4     5   ar
     8     5     6   ar
     9     6     7   ar
    10     7    16    1
    11    16    17    1
    12     7     8   ar
    13     1     8    1
    14     1    18    1
    15    18    19   ar
    16    19    20   ar
    17    20    21   ar
    18    21    22   ar
    19    22    23   ar
    20     1    24    1
    21    24    25    1
    22    24    37    1
    23    37    38    1
    24    38    39    1
    25    39    40    1
    26    39    41    1
    27    24    27    1
    28    27    28   ar
    29    28    29   ar
    30    29    30   ar
    31    30    31   ar
    32    31    32   ar
    33    32    33   ar
    34    33    34   ar
    35    34    35   ar
    36    35    36   ar
    37     8     9   ar
    38     9    10   ar
    39    10    11   ar
    40    11     2   ar
    41    10     5   ar
    42    23    18   ar
    43    36    27   ar
    44    36    31   ar
    45    25    26    1
@<TRIPOS>MOLECULE
*****
 41 45 0 0 0
SMALL
GASTEIGER

@<TRIPOS>ATOM
      1 C         140.2074  140.5207  165.1078 C.3     1  UNL1        0.0776
      2 C         141.9823  139.3954  158.9164 C.ar    1  UNL1        0.0225
      3 C         141.3144  140.6008  158.3241 C.ar    1  UNL1        0.0032
      4 C         140.5586  141.5491  159.2071 C.ar    1  UNL1        0.0193
      5 C         140.4708  141.2920  160.6822 C.ar    1  UNL1        0.0844
      6 N         139.7150  142.2404  161.5651 N.ar    1  UNL1       -0.2119
      7 C         139.6272  141.9833  163.0403 C.ar    1  UNL1        0.2211
      8 C         140.2952  140.7778  163.6326 C.ar    1  UNL1        0.0373
      9 C         141.0509  139.8295  162.7497 C.ar    1  UNL1        0.0022
     10 C         141.1387  140.0866  161.2745 C.ar    1  UNL1        0.0177
     11 C         141.8945  139.1383  160.3915 C.ar    1  UNL1        0.0031
     12 N         143.6539  138.9794  156.9715 N.2     1  UNL1       -0.0813
     13 C         142.7381  138.4471  158.0335 C.2     1  UNL1        0.1400
     14 C         143.7981  136.7170  155.7023 C.3     1  UNL1        0.2885
     15 O         144.4097  138.0311  156.0886 O.2     1  UNL1       -0.3730
     16 O         138.8715  142.9316  163.9232 O.3     1  UNL1       -0.4563
     17 C         137.7742  143.7780  163.3491 C.3     1  UNL1        0.2542
     18 C         139.3236  139.4254  165.6269 C.ar    1  UNL1       -0.0157
     19 C         139.2712  138.1045  164.9180 C.ar    1  UNL1       -0.0039
     20 C         138.3875  137.0093  165.4371 C.ar    1  UNL1       -0.0003
     21 C         137.5562  137.2349  166.6651 C.ar    1  UNL1       -0.0000
     22 C         137.6086  138.5558  167.3740 C.ar    1  UNL1       -0.0003
     23 C         138.4923  139.6511  166.8549 C.ar    1  UNL1       -0.0039
     24 C         141.0033  141.3588  166.0638 C.3     1  UNL1        0.1158
     25 O         139.7837  142.1810  166.3584 O.3     1  UNL1       -0.3820
     26 H         139.3279  142.3920  165.5285 H       1  UNL1        0.2107
     27 C         142.2228  140.5367  165.7693 C.ar    1  UNL1        0.0024
     28 C         142.3565  139.1593  166.3480 C.ar    1  UNL1       -0.0020
     29 C         143.5760  138.3371  166.0535 C.ar    1  UNL1       -0.0002
     30 C         144.6619  138.8923  165.1803 C.ar    1  UNL1       -0.0000
     31 C         144.5283  140.2697  164.6016 C.ar    1  UNL1       -0.0002
     32 C         145.6142  140.8251  163.7284 C.ar    1  UNL1       -0.0000
     33 C         145.4806  142.2024  163.1498 C.ar    1  UNL1       -0.0000
     34 C         144.2610  143.0246  163.4443 C.ar    1  UNL1       -0.0000
     35 C         143.1751  142.4694  164.3175 C.ar    1  UNL1       -0.0002
     36 C         143.3087  141.0919  164.8962 C.ar    1  UNL1       -0.0018
     37 C         141.7992  142.1969  167.0199 C.3     1  UNL1        0.0491
     38 C         141.7993  141.8693  168.4837 C.3     1  UNL1        0.0750
     39 N         140.6571  142.3093  169.3508 N.3     1  UNL1       -0.2702
     40 C         140.4707  143.7643  169.6644 C.3     1  UNL1        0.0897
     41 C         139.7014  141.2943  169.9043 C.3     1  UNL1        0.0897
@<TRIPOS>BOND
     1    14    15    1
     2    15    12    1
     3    12    13    2
     4    13     2    1
     5     2     3   ar
     6     3     4   ar
     7     4     5   ar
     8     5     6   ar
     9     6     7   ar
    10     7    16    1
    11    16    17    1
    12     7     8   ar
    13     1     8    1
    14     1    18    1
    15    18    19   ar
    16    19    20   ar
    17    20    21   ar
    18    21    22   ar
    19    22    23   ar
    20     1    24    1
    21    24    25    1
    22    24    37    1
    23    37    38    1
    24    38    39    1
    25    39    40    1
    26    39    41    1
    27    24    27    1
    28    27    28   ar
    29    28    29   ar
    30    29    30   ar
    31    30    31   ar
    32    31    32   ar
    33    32    33   ar
    34    33    34   ar
    35    34    35   ar
    36    35    36   ar
    37     8     9   ar
    38     9    10   ar
    39    10    11   ar
    40    11     2   ar
    41    10     5   ar
    42    23    18   ar
    43    36    27   ar
    44    36    31   ar
    45    25    26    1
@<TRIPOS>MOLECULE
*****
 41 45 0 0 0
SMALL
GASTEIGER

@<TRIPOS>ATOM
      1 C         141.6422  141.9905  164.2063 C.3     1  UNL1        0.0776
      2 C         143.2634  140.3053  158.1004 C.ar    1  UNL1        0.0225
      3 C         144.3896  141.2838  157.9451 C.ar    1  UNL1        0.0032
      4 C         144.7411  142.2079  159.0732 C.ar    1  UNL1        0.0193
      5 C         143.9664  142.1536  160.3564 C.ar    1  UNL1        0.0844
      6 N         144.3179  143.0777  161.4844 N.ar    1  UNL1       -0.2119
      7 C         143.5432  143.0234  162.7677 C.ar    1  UNL1        0.2211
      8 C         142.4169  142.0448  162.9230 C.ar    1  UNL1        0.0373
      9 C         142.0654  141.1207  161.7950 C.ar    1  UNL1        0.0022
     10 C         142.8402  141.1751  160.5117 C.ar    1  UNL1        0.0177
     11 C         142.4887  140.2509  159.3837 C.ar    1  UNL1        0.0031
     12 N         143.4708  137.9896  156.9410 N.2     1  UNL1       -0.0813
     13 C         142.9118  139.3811  156.9724 C.2     1  UNL1        0.1400
     14 C         143.9869  135.8777  155.5183 C.3     1  UNL1        0.2885
     15 O         143.1193  137.0654  155.8130 O.2     1  UNL1       -0.3730
     16 O         143.8947  143.9475  163.8957 O.3     1  UNL1       -0.4563
     17 C         143.3799  145.3563  163.8993 C.3     1  UNL1        0.2542
     18 C         140.2733  142.5992  164.2824 C.ar    1  UNL1       -0.0157
     19 C         139.1588  142.0455  163.4450 C.ar    1  UNL1       -0.0039
     20 C         137.7899  142.6541  163.5210 C.ar    1  UNL1       -0.0003
     21 C         137.5357  143.8164  164.4344 C.ar    1  UNL1       -0.0000
     22 C         138.6502  144.3701  165.2718 C.ar    1  UNL1       -0.0003
     23 C         140.0191  143.7615  165.1958 C.ar    1  UNL1       -0.0039
     24 C         142.2364  141.3275  165.4136 C.3     1  UNL1        0.1158
     25 O         142.6736  142.6651  165.9329 O.3     1  UNL1       -0.3820
     26 H         143.0669  143.1795  165.2107 H       1  UNL1        0.2107
     27 C         141.7991  139.9900  164.8942 C.ar    1  UNL1        0.0024
     28 C         142.6441  139.2621  163.8912 C.ar    1  UNL1       -0.0020
     29 C         142.2068  137.9245  163.3718 C.ar    1  UNL1       -0.0002
     30 C         140.9245  137.3148  163.8555 C.ar    1  UNL1       -0.0000
     31 C         140.0795  138.0427  164.8585 C.ar    1  UNL1       -0.0002
     32 C         138.7971  137.4331  165.3422 C.ar    1  UNL1       -0.0000
     33 C         137.9521  138.1609  166.3452 C.ar    1  UNL1       -0.0000
     34 C         138.3894  139.4985  166.8646 C.ar    1  UNL1       -0.0000
     35 C         139.6717  140.1082  166.3809 C.ar    1  UNL1       -0.0002
     36 C         140.5168  139.3803  165.3778 C.ar    1  UNL1       -0.0018
     37 C         142.8305  140.6645  166.6208 C.3     1  UNL1        0.0491
     38 C         142.9125  141.4083  167.9208 C.3     1  UNL1        0.0750
     39 N         141.7221  141.4595  168.8320 N.3     1  UNL1       -0.2702
     40 C         141.3706  140.2691  169.6743 C.3     1  UNL1        0.0897
     41 C         140.8832  142.7010  168.9010 C.3     1  UNL1        0.0897
@<TRIPOS>BOND
     1    14    15    1
     2    15    12    1
     3    12    13    2
     4    13     2    1
     5     2     3   ar
     6     3     4   ar
     7     4     5   ar
     8     5     6   ar
     9     6     7   ar
    10     7    16    1
    11    16    17    1
    12     7     8   ar
    13     1     8    1
    14     1    18    1
    15    18    19   ar
    16    19    20   ar
    17    20    21   ar
    18    21    22   ar
    19    22    23   ar
    20     1    24    1
    21    24    25    1
    22    24    37    1
    23    37    38    1
    24    38    39    1
    25    39    40    1
    26    39    41    1
    27    24    27    1
    28    27    28   ar
    29    28    29   ar
    30    29    30   ar
    31    30    31   ar
    32    31    32   ar
    33    32    33   ar
    34    33    34   ar
    35    34    35   ar
    36    35    36   ar
    37     8     9   ar
    38     9    10   ar
    39    10    11   ar
    40    11     2   ar
    41    10     5   ar
    42    23    18   ar
    43    36    27   ar
    44    36    31   ar
    45    25    26    1
@<TRIPOS>MOLECULE
*****
 41 45 0 0 0
SMALL
GASTEIGER

@<TRIPOS>ATOM
      1 C         141.4733  140.5108  165.4801 C.3     1  UNL1        0.0776
      2 C         138.7713  140.9614  159.5433 C.ar    1  UNL1        0.0225
      3 C         137.6237  140.0318  159.8055 C.ar    1  UNL1        0.0032
      4 C         137.4756  139.3839  161.1503 C.ar    1  UNL1        0.0193
      5 C         138.4750  139.6656  162.2327 C.ar    1  UNL1        0.0844
      6 N         138.3268  139.0177  163.5775 N.ar    1  UNL1       -0.2119
      7 C         139.3262  139.2995  164.6599 C.ar    1  UNL1        0.2211
      8 C         140.4739  140.2291  164.3977 C.ar    1  UNL1        0.0373
      9 C         140.6221  140.8770  163.0529 C.ar    1  UNL1        0.0022
     10 C         139.6226  140.5952  161.9704 C.ar    1  UNL1        0.0177
     11 C         139.7707  141.2431  160.6257 C.ar    1  UNL1        0.0031
     12 N         138.0320  142.7566  157.8169 N.2     1  UNL1       -0.0813
     13 C         138.9195  141.6092  158.1985 C.2     1  UNL1        0.1400
     14 C         137.0034  143.4868  155.5456 C.3     1  UNL1        0.2885
     15 O         138.1801  143.4045  156.4722 O.2     1  UNL1       -0.3730
     16 O         139.1780  138.6516  166.0046 O.3     1  UNL1       -0.4563
     17 C         137.8452  138.6482  166.6927 C.3     1  UNL1        0.2542
     18 C         142.7697  139.7572  165.5186 C.ar    1  UNL1       -0.0157
     19 C         143.8406  140.0552  164.5114 C.ar    1  UNL1       -0.0039
     20 C         145.1370  139.3016  164.5499 C.ar    1  UNL1       -0.0003
     21 C         145.3625  138.2501  165.5955 C.ar    1  UNL1       -0.0000
     22 C         144.2916  137.9522  166.6027 C.ar    1  UNL1       -0.0003
     23 C         142.9952  138.7057  166.5643 C.ar    1  UNL1       -0.0039
     24 C         141.1764  141.5462  166.5241 C.3     1  UNL1        0.1158
     25 O         140.7171  140.4691  167.4616 O.3     1  UNL1       -0.3820
     26 H         140.1510  139.8435  166.9829 H       1  UNL1        0.2107
     27 C         141.6357  142.6233  165.5866 C.ar    1  UNL1        0.0024
     28 C         143.1004  142.9038  165.4266 C.ar    1  UNL1       -0.0020
     29 C         143.5597  143.9809  164.4891 C.ar    1  UNL1       -0.0002
     30 C         142.5542  144.7774  163.7116 C.ar    1  UNL1       -0.0000
     31 C         141.0895  144.4969  163.8716 C.ar    1  UNL1       -0.0002
     32 C         140.0839  145.2934  163.0941 C.ar    1  UNL1       -0.0000
     33 C         138.6191  145.0128  163.2542 C.ar    1  UNL1       -0.0000
     34 C         138.1598  143.9357  164.1917 C.ar    1  UNL1       -0.0000
     35 C         139.1653  143.1392  164.9691 C.ar    1  UNL1       -0.0002
     36 C         140.6302  143.4198  164.8091 C.ar    1  UNL1       -0.0018
     37 C         140.8794  142.5815  167.5681 C.3     1  UNL1        0.0491
     38 C         141.6648  142.6049  168.8459 C.3     1  UNL1        0.0750
     39 N         141.0669  142.0485  170.1040 N.3     1  UNL1       -0.2702
     40 C         141.9105  141.2324  171.0381 C.3     1  UNL1        0.0897
     41 C         139.6256  142.3081  170.4281 C.3     1  UNL1        0.0897
@<TRIPOS>BOND
     1    14    15    1
     2    15    12    1
     3    12    13    2
     4    13     2    1
     5     2     3   ar
     6     3     4   ar
     7     4     5   ar
     8     5     6   ar
     9     6     7   ar
    10     7    16    1
    11    16    17    1
    12     7     8   ar
    13     1     8    1
    14     1    18    1
    15    18    19   ar
    16    19    20   ar
    17    20    21   ar
    18    21    22   ar
    19    22    23   ar
    20     1    24    1
    21    24    25    1
    22    24    37    1
    23    37    38    1
    24    38    39    1
    25    39    40    1
    26    39    41    1
    27    24    27    1
    28    27    28   ar
    29    28    29   ar
    30    29    30   ar
    31    30    31   ar
    32    31    32   ar
    33    32    33   ar
    34    33    34   ar
    35    34    35   ar
    36    35    36   ar
    37     8     9   ar
    38     9    10   ar
    39    10    11   ar
    40    11     2   ar
    41    10     5   ar
    42    23    18   ar
    43    36    27   ar
    44    36    31   ar
    45    25    26    1
@<TRIPOS>MOLECULE
*****
 41 45 0 0 0
SMALL
GASTEIGER

@<TRIPOS>ATOM
      1 C         140.4315  140.4331  164.0502 C.3     1  UNL1        0.0776
      2 C         138.1567  140.6462  157.9240 C.ar    1  UNL1        0.0225
      3 C         139.3847  140.0913  157.2651 C.ar    1  UNL1        0.0032
      4 C         140.5765  139.7158  158.0950 C.ar    1  UNL1        0.0193
      5 C         140.5402  139.8951  159.5838 C.ar    1  UNL1        0.0844
      6 N         141.7320  139.5196  160.4137 N.ar    1  UNL1       -0.2119
      7 C         141.6957  139.6989  161.9025 C.ar    1  UNL1        0.2211
      8 C         140.4677  140.2538  162.5614 C.ar    1  UNL1        0.0373
      9 C         139.2760  140.6293  161.7315 C.ar    1  UNL1        0.0022
     10 C         139.3122  140.4500  160.2427 C.ar    1  UNL1        0.0177
     11 C         138.1205  140.8255  159.4128 C.ar    1  UNL1        0.0031
     12 N         136.5091  140.1203  155.9853 N.2     1  UNL1       -0.0813
     13 C         136.9650  141.0217  157.0941 C.2     1  UNL1        0.1400
     14 C         133.9508  140.5206  155.7734 C.3     1  UNL1        0.2885
     15 O         135.3174  140.4958  155.1554 O.2     1  UNL1       -0.3730
     16 O         142.8875  139.3234  162.7324 O.3     1  UNL1       -0.4563
     17 C         144.2359  139.8965  162.4110 C.3     1  UNL1        0.2542
     18 C         139.6025  139.5130  164.8965 C.ar    1  UNL1       -0.0157
     19 C         139.3273  138.1129  164.4340 C.ar    1  UNL1       -0.0039
     20 C         138.4984  137.1927  165.2803 C.ar    1  UNL1       -0.0003
     21 C         137.9447  137.6727  166.5890 C.ar    1  UNL1       -0.0000
     22 C         138.2199  139.0728  167.0516 C.ar    1  UNL1       -0.0003
     23 C         139.0488  139.9929  166.2053 C.ar    1  UNL1       -0.0039
     24 C         141.2241  141.5326  164.6927 C.3     1  UNL1        0.1158
     25 O         142.1897  140.5203  165.2338 O.3     1  UNL1       -0.3820
     26 H         141.6984  139.7690  165.6013 H       1  UNL1        0.2107
     27 C         140.2586  142.5450  164.1516 C.ar    1  UNL1        0.0024
     28 C         138.9298  142.7452  164.8182 C.ar    1  UNL1       -0.0020
     29 C         137.9643  143.7575  164.2771 C.ar    1  UNL1       -0.0002
     30 C         138.3274  144.5697  163.0694 C.ar    1  UNL1       -0.0000
     31 C         139.6561  144.3695  162.4029 C.ar    1  UNL1       -0.0002
     32 C         140.0193  145.1817  161.1951 C.ar    1  UNL1       -0.0000
     33 C         141.3480  144.9815  160.5286 C.ar    1  UNL1       -0.0000
     34 C         142.3136  143.9691  161.0697 C.ar    1  UNL1       -0.0000
     35 C         141.9505  143.1569  162.2773 C.ar    1  UNL1       -0.0002
     36 C         140.6217  143.3571  162.9440 C.ar    1  UNL1       -0.0018
     37 C         142.0168  142.6321  165.3352 C.3     1  UNL1        0.0491
     38 C         142.6898  142.3987  166.6553 C.3     1  UNL1        0.0750
     39 N         141.8809  141.9738  167.8448 N.3     1  UNL1       -0.2702
     40 C         142.3165  140.7967  168.6664 C.3     1  UNL1        0.0897
     41 C         140.6364  142.7259  168.2129 C.3     1  UNL1        0.0897
@<TRIPOS>BOND
     1    14    15    1
     2    15    12    1
     3    12    13    2
     4    13     2    1
     5     2     3   ar
     6     3     4   ar
     7     4     5   ar
     8     5     6   ar
     9     6     7   ar
    10     7    16    1
    11    16    17    1
    12     7     8   ar
    13     1     8    1
    14     1    18    1
    15    18    19   ar
    16    19    20   ar
    17    20    21   ar
    18    21    22   ar
    19    22    23   ar
    20     1    24    1
    21    24    25    1
    22    24    37    1
    23    37    38    1
    24    38    39    1
    25    39    40    1
    26    39    41    1
    27    24    27    1
    28    27    28   ar
    29    28    29   ar
    30    29    30   ar
    31    30    31   ar
    32    31    32   ar
    33    32    33   ar
    34    33    34   ar
    35    34    35   ar
    36    35    36   ar
    37     8     9   ar
    38     9    10   ar
    39    10    11   ar
    40    11     2   ar
    41    10     5   ar
    42    23    18   ar
    43    36    27   ar
    44    36    31   ar
    45    25    26    1
@<TRIPOS>MOLECULE
*****
 41 45 0 0 0
SMALL
GASTEIGER

@<TRIPOS>ATOM
      1 C         140.4850  141.1815  163.4521 C.3     1  UNL1        0.0776
      2 C         142.1952  140.1501  169.6779 C.ar    1  UNL1        0.0225
      3 C         141.5641  141.3905  170.2374 C.ar    1  UNL1        0.0032
      4 C         140.8433  142.3410  169.3280 C.ar    1  UNL1        0.0193
      5 C         140.7537  142.0511  167.8590 C.ar    1  UNL1        0.0844
      6 N         140.0330  143.0016  166.9496 N.ar    1  UNL1       -0.2119
      7 C         139.9434  142.7118  165.4806 C.ar    1  UNL1        0.2211
      8 C         140.5746  141.4713  164.9210 C.ar    1  UNL1        0.0373
      9 C         141.2953  140.5209  165.8305 C.ar    1  UNL1        0.0022
     10 C         141.3849  140.8108  167.2995 C.ar    1  UNL1        0.0177
     11 C         142.1056  139.8603  168.2089 C.ar    1  UNL1        0.0031
     12 N         143.2429  137.8135  170.1166 N.2     1  UNL1       -0.0813
     13 C         142.9160  139.1996  170.5874 C.2     1  UNL1        0.1400
     14 C         145.0464  135.9792  170.4813 C.3     1  UNL1        0.2885
     15 O         143.9636  136.8630  171.0260 O.2     1  UNL1       -0.3730
     16 O         139.2227  143.6623  164.5712 O.3     1  UNL1       -0.4563
     17 C         138.4464  144.8089  165.1478 C.3     1  UNL1        0.2542
     18 C         139.5558  140.1147  162.9534 C.ar    1  UNL1       -0.0157
     19 C         138.5206  140.4452  161.9194 C.ar    1  UNL1       -0.0039
     20 C         137.5914  139.3785  161.4207 C.ar    1  UNL1       -0.0003
     21 C         137.6975  137.9813  161.9560 C.ar    1  UNL1       -0.0000
     22 C         138.7327  137.6508  162.9899 C.ar    1  UNL1       -0.0003
     23 C         139.6618  138.7175  163.4886 C.ar    1  UNL1       -0.0039
     24 C         141.3246  141.9584  162.4817 C.3     1  UNL1        0.1158
     25 O         140.1611  142.8617  162.1982 O.3     1  UNL1       -0.3820
     26 H         139.3581  142.3292  162.0864 H       1  UNL1        0.2107
     27 C         142.4881  141.0551  162.7652 C.ar    1  UNL1        0.0024
     28 C         143.4208  141.3666  163.8978 C.ar    1  UNL1       -0.0020
     29 C         144.5843  140.4633  164.1813 C.ar    1  UNL1       -0.0002
     30 C         144.8150  139.2485  163.3322 C.ar    1  UNL1       -0.0000
     31 C         143.8822  138.9370  162.1996 C.ar    1  UNL1       -0.0002
     32 C         144.1129  137.7222  161.3504 C.ar    1  UNL1       -0.0000
     33 C         143.1801  137.4107  160.2178 C.ar    1  UNL1       -0.0000
     34 C         142.0166  138.3140  159.9343 C.ar    1  UNL1       -0.0000
     35 C         141.7859  139.5288  160.7834 C.ar    1  UNL1       -0.0002
     36 C         142.7188  139.8403  161.9161 C.ar    1  UNL1       -0.0018
     37 C         142.1641  142.7353  161.5114 C.3     1  UNL1        0.0491
     38 C         142.1986  144.2332  161.5811 C.3     1  UNL1        0.0750
     39 N         142.6765  144.9151  162.8287 N.3     1  UNL1       -0.2702
     40 C         141.6934  145.5927  163.7368 C.3     1  UNL1        0.0897
     41 C         144.1376  144.9196  163.1683 C.3     1  UNL1        0.0897
@<TRIPOS>BOND
     1    14    15    1
     2    15    12    1
     3    12    13    2
     4    13     2    1
     5     2     3   ar
     6     3     4   ar
     7     4     5   ar
     8     5     6   ar
     9     6     7   ar
    10     7    16    1
    11    16    17    1
    12     7     8   ar
    13     1     8    1
    14     1    18    1
    15    18    19   ar
    16    19    20   ar
    17    20    21   ar
    18    21    22   ar
    19    22    23   ar
    20     1    24    1
    21    24    25    1
    22    24    37    1
    23    37    38    1
    24    38    39    1
    25    39    40    1
    26    39    41    1
    27    24    27    1
    28    27    28   ar
    29    28    29   ar
    30    29    30   ar
    31    30    31   ar
    32    31    32   ar
    33    32    33   ar
    34    33    34   ar
    35    34    35   ar
    36    35    36   ar
    37     8     9   ar
    38     9    10   ar
    39    10    11   ar
    40    11     2   ar
    41    10     5   ar
    42    23    18   ar
    43    36    27   ar
    44    36    31   ar
    45    25    26    1
@<TRIPOS>MOLECULE
*****
 41 45 0 0 0
SMALL
GASTEIGER

@<TRIPOS>ATOM
      1 C         140.6851  141.2094  164.1242 C.3     1  UNL1        0.0776
      2 C         142.4841  141.2158  157.8382 C.ar    1  UNL1        0.0225
      3 C         141.2389  141.8590  157.3036 C.ar    1  UNL1        0.0032
      4 C         140.1320  142.2436  158.2400 C.ar    1  UNL1        0.0193
      5 C         140.2703  141.9850  159.7110 C.ar    1  UNL1        0.0844
      6 N         139.1634  142.3696  160.6474 N.ar    1  UNL1       -0.2119
      7 C         139.3016  142.1111  162.1185 C.ar    1  UNL1        0.2211
      8 C         140.5468  141.4679  162.6532 C.ar    1  UNL1        0.0373
      9 C         141.6537  141.0833  161.7168 C.ar    1  UNL1        0.0022
     10 C         141.5154  141.3419  160.2457 C.ar    1  UNL1        0.0177
     11 C         142.6223  140.9573  159.3093 C.ar    1  UNL1        0.0031
     12 N         144.0758  139.4125  156.8563 N.2     1  UNL1       -0.0813
     13 C         143.5910  140.8312  156.9018 C.2     1  UNL1        0.1400
     14 C         145.5909  139.9603  154.8180 C.3     1  UNL1        0.2885
     15 O         145.1827  139.0279  155.9199 O.2     1  UNL1       -0.3730
     16 O         138.1947  142.4957  163.0549 O.3     1  UNL1       -0.4563
     17 C         137.7546  143.9266  163.1484 C.3     1  UNL1        0.2542
     18 C         139.8951  140.1098  164.7700 C.ar    1  UNL1       -0.0157
     19 C         138.8992  140.4331  165.8441 C.ar    1  UNL1       -0.0039
     20 C         138.1092  139.3336  166.4899 C.ar    1  UNL1       -0.0003
     21 C         138.3152  137.9109  166.0616 C.ar    1  UNL1       -0.0000
     22 C         139.3112  137.5877  164.9875 C.ar    1  UNL1       -0.0003
     23 C         140.1011  138.6872  164.3417 C.ar    1  UNL1       -0.0039
     24 C         141.6133  142.0504  164.9495 C.3     1  UNL1        0.1158
     25 O         140.9392  143.2911  164.4434 O.3     1  UNL1       -0.3820
     26 H         140.8025  143.2172  163.4859 H       1  UNL1        0.2107
     27 C         142.2874  140.8097  165.4557 C.ar    1  UNL1        0.0024
     28 C         143.0998  139.9631  164.5212 C.ar    1  UNL1       -0.0020
     29 C         143.7739  138.7224  165.0274 C.ar    1  UNL1       -0.0002
     30 C         143.6356  138.3282  166.4680 C.ar    1  UNL1       -0.0000
     31 C         142.8232  139.1748  167.4025 C.ar    1  UNL1       -0.0002
     32 C         142.6848  138.7806  168.8432 C.ar    1  UNL1       -0.0000
     33 C         141.8724  139.6272  169.7777 C.ar    1  UNL1       -0.0000
     34 C         141.1984  140.8679  169.2715 C.ar    1  UNL1       -0.0000
     35 C         141.3367  141.2621  167.8309 C.ar    1  UNL1       -0.0002
     36 C         142.1491  140.4155  166.8963 C.ar    1  UNL1       -0.0018
     37 C         142.5415  142.8914  165.7749 C.3     1  UNL1        0.0491
     38 C         143.9015  143.2438  165.2494 C.3     1  UNL1        0.0750
     39 N         144.0525  143.7723  163.8537 N.3     1  UNL1       -0.2702
     40 C         144.6562  142.9088  162.7859 C.3     1  UNL1        0.0897
     41 C         143.5998  145.1642  163.5257 C.3     1  UNL1        0.0897
@<TRIPOS>BOND
     1    14    15    1
     2    15    12    1
     3    12    13    2
     4    13     2    1
     5     2     3   ar
     6     3     4   ar
     7     4     5   ar
     8     5     6   ar
     9     6     7   ar
    10     7    16    1
    11    16    17    1
    12     7     8   ar
    13     1     8    1
    14     1    18    1
    15    18    19   ar
    16    19    20   ar
    17    20    21   ar
    18    21    22   ar
    19    22    23   ar
    20     1    24    1
    21    24    25    1
    22    24    37    1
    23    37    38    1
    24    38    39    1
    25    39    40    1
    26    39    41    1
    27    24    27    1
    28    27    28   ar
    29    28    29   ar
    30    29    30   ar
    31    30    31   ar
    32    31    32   ar
    33    32    33   ar
    34    33    34   ar
    35    34    35   ar
    36    35    36   ar
    37     8     9   ar
    38     9    10   ar
    39    10    11   ar
    40    11     2   ar
    41    10     5   ar
    42    23    18   ar
    43    36    27   ar
    44    36    31   ar
    45    25    26    1
