@<TRIPOS>MOLECULE
*****
 33 37 0 0 0
SMALL
GASTEIGER

@<TRIPOS>ATOM
      1 N         140.0972  140.0047  166.5854 N.ar    1  UNL1       -0.2815
      2 C         139.4612  139.9207  167.9413 C.ar    1  UNL1        0.3316
      3 O         138.2286  139.1402  168.2902 O.2     1  UNL1       -0.2463
      4 N         140.2741  140.7542  168.8870 N.ar    1  UNL1       -0.2765
      5 C         139.9973  140.9536  170.3477 C.3     1  UNL1        0.1352
      6 C         141.4126  141.3533  168.1156 C.ar    1  UNL1        0.0989
      7 C         142.5346  142.2608  168.5247 C.ar    1  UNL1        0.1175
      8 N         143.5473  142.7050  167.5113 N.ar    1  UNL1       -0.2422
      9 C         143.4380  142.2418  166.0889 C.ar    1  UNL1        0.0850
     10 C         144.4508  142.6861  165.0754 C.ar    1  UNL1        0.0488
     11 C         144.3415  142.2229  163.6530 C.ar    1  UNL1        0.1416
     12 F         145.3542  142.6671  162.6396 F       1  UNL1       -0.2041
     13 C         143.2193  141.3154  163.2439 C.ar    1  UNL1        0.0291
     14 C         142.2066  140.8711  164.2573 C.ar    1  UNL1        0.0053
     15 C         142.3159  141.3343  165.6798 C.ar    1  UNL1        0.0352
     16 C         141.3032  140.8901  166.6931 C.ar    1  UNL1        0.0826
     17 C         143.1100  140.8521  161.8214 C.ar    1  UNL1        0.0213
     18 C         142.0587  141.4325  160.9223 C.ar    1  UNL1        0.0029
     19 C         141.9494  140.9693  159.4999 C.ar    1  UNL1        0.0165
     20 C         142.8913  139.9257  158.9764 C.ar    1  UNL1        0.0828
     21 N         143.9424  139.3454  159.8755 N.ar    1  UNL1       -0.2464
     22 C         144.0518  139.8086  161.2979 C.ar    1  UNL1        0.0985
     23 C         142.7819  139.4625  157.5539 C.3     1  UNL1        0.1962
     24 S         142.6889  137.9970  157.2474 S.O2    1  UNL1       -0.0025
     25 C         142.5959  136.5316  156.9409 C.3     1  UNL1        0.1765
     26 O         141.3960  137.9208  158.0040 O.2     1  UNL1       -0.1726
     27 O         143.9818  138.0732  156.4909 O.2     1  UNL1       -0.1726
     28 C         138.9267  138.3588  163.5795 C.3     1  UNL1        0.1191
     29 C         138.6599  139.6799  164.2379 C.3     1  UNL1        0.0524
     30 C         139.6124  139.3230  165.3403 C.3     1  UNL1        0.0947
     31 C         139.8792  138.0017  164.6820 C.3     1  UNL1        0.0524
     32 C         138.9946  138.0747  160.9979 C.3     1  UNL1        0.1740
     33 O         138.4419  137.6771  162.3345 O.3     1  UNL1       -0.3534
@<TRIPOS>BOND
     1    32    33    1
     2    28    33    1
     3    28    29    1
     4    29    30    1
     5    30     1    1
     6     1     2   ar
     7     2     3    2
     8     2     4   ar
     9     4     5    1
    10     4     6   ar
    11     6     7   ar
    12     7     8   ar
    13     8     9   ar
    14     9    10   ar
    15    10    11   ar
    16    11    12    1
    17    11    13   ar
    18    13    17    1
    19    17    18   ar
    20    18    19   ar
    21    19    20   ar
    22    20    23    1
    23    23    24    1
    24    24    25    1
    25    24    26    2
    26    24    27    2
    27    20    21   ar
    28    21    22   ar
    29    13    14   ar
    30    14    15   ar
    31    15    16   ar
    32    30    31    1
    33    31    28    1
    34    16     1   ar
    35    16     6   ar
    36    15     9   ar
    37    22    17   ar
@<TRIPOS>MOLECULE
*****
 33 37 0 0 0
SMALL
GASTEIGER

@<TRIPOS>ATOM
      1 N         142.5881  141.5369  167.2507 N.ar    1  UNL1       -0.2815
      2 C         142.8936  142.0609  168.6225 C.ar    1  UNL1        0.3316
      3 O         144.0937  142.8736  169.0089 O.2     1  UNL1       -0.2463
      4 N         141.7883  141.6295  169.5403 N.ar    1  UNL1       -0.2765
      5 C         141.6891  141.9350  171.0055 C.3     1  UNL1        0.1352
      6 C         140.7997  140.8389  168.7356 C.ar    1  UNL1        0.0989
      7 C         139.5132  140.1637  169.1086 C.ar    1  UNL1        0.1175
      8 N         138.7211  139.4313  168.0665 N.ar    1  UNL1       -0.2422
      9 C         139.2153  139.3740  166.6514 C.ar    1  UNL1        0.0850
     10 C         138.4231  138.6416  165.6093 C.ar    1  UNL1        0.0488
     11 C         138.9174  138.5844  164.1942 C.ar    1  UNL1        0.1416
     12 F         138.1252  137.8520  163.1521 F       1  UNL1       -0.2041
     13 C         140.2039  139.2596  163.8213 C.ar    1  UNL1        0.0291
     14 C         140.9960  139.9920  164.8633 C.ar    1  UNL1        0.0053
     15 C         140.5018  140.0492  166.2784 C.ar    1  UNL1        0.0352
     16 C         141.2939  140.7816  167.3205 C.ar    1  UNL1        0.0826
     17 C         140.6981  139.2024  162.4062 C.ar    1  UNL1        0.0213
     18 C         141.6046  138.0885  161.9728 C.ar    1  UNL1        0.0029
     19 C         142.0989  138.0313  160.5578 C.ar    1  UNL1        0.0165
     20 C         141.6867  139.0879  159.5760 C.ar    1  UNL1        0.0828
     21 N         140.7803  140.2017  160.0094 N.ar    1  UNL1       -0.2464
     22 C         140.2860  140.2589  161.4245 C.ar    1  UNL1        0.0985
     23 C         142.1810  139.0307  158.1610 C.3     1  UNL1        0.1962
     24 S         141.9279  137.8098  157.3269 S.O2    1  UNL1       -0.0025
     25 C         141.6748  136.5890  156.4930 C.3     1  UNL1        0.1765
     26 O         143.4064  137.6017  157.1830 O.2     1  UNL1       -0.1726
     27 O         140.4495  138.0180  157.4709 O.2     1  UNL1       -0.1726
     28 C         144.6182  142.0118  164.2898 C.3     1  UNL1        0.1191
     29 C         144.0940  140.8213  165.0366 C.3     1  UNL1        0.0524
     30 C         143.4290  141.7336  166.0242 C.3     1  UNL1        0.0947
     31 C         143.9532  142.9242  165.2774 C.3     1  UNL1        0.0524
     32 C         144.8158  142.2309  161.7085 C.3     1  UNL1        0.1740
     33 O         145.4592  142.2085  163.0633 O.3     1  UNL1       -0.3534
@<TRIPOS>BOND
     1    32    33    1
     2    28    33    1
     3    28    29    1
     4    29    30    1
     5    30     1    1
     6     1     2   ar
     7     2     3    2
     8     2     4   ar
     9     4     5    1
    10     4     6   ar
    11     6     7   ar
    12     7     8   ar
    13     8     9   ar
    14     9    10   ar
    15    10    11   ar
    16    11    12    1
    17    11    13   ar
    18    13    17    1
    19    17    18   ar
    20    18    19   ar
    21    19    20   ar
    22    20    23    1
    23    23    24    1
    24    24    25    1
    25    24    26    2
    26    24    27    2
    27    20    21   ar
    28    21    22   ar
    29    13    14   ar
    30    14    15   ar
    31    15    16   ar
    32    30    31    1
    33    31    28    1
    34    16     1   ar
    35    16     6   ar
    36    15     9   ar
    37    22    17   ar
@<TRIPOS>MOLECULE
*****
 33 37 0 0 0
SMALL
GASTEIGER

@<TRIPOS>ATOM
      1 N         139.0506  141.0897  161.2969 N.ar    1  UNL1       -0.2815
      2 C         138.3997  140.7663  159.9847 C.ar    1  UNL1        0.3316
      3 O         137.2660  139.8066  159.7756 O.2     1  UNL1       -0.2463
      4 N         139.0817  141.5712  158.9184 N.ar    1  UNL1       -0.2765
      5 C         138.7496  141.5577  157.4556 C.3     1  UNL1        0.1352
      6 C         140.1540  142.3920  159.5715 C.ar    1  UNL1        0.0989
      7 C         141.1453  143.3719  159.0175 C.ar    1  UNL1        0.1175
      8 N         142.1175  144.0541  159.9336 N.ar    1  UNL1       -0.2422
      9 C         142.0983  143.7565  161.4037 C.ar    1  UNL1        0.0850
     10 C         143.0706  144.4389  162.3198 C.ar    1  UNL1        0.0488
     11 C         143.0514  144.1413  163.7898 C.ar    1  UNL1        0.1416
     12 F         144.0236  144.8236  164.7059 F       1  UNL1       -0.2041
     13 C         142.0599  143.1613  164.3438 C.ar    1  UNL1        0.0291
     14 C         141.0877  142.4790  163.4277 C.ar    1  UNL1        0.0053
     15 C         141.1069  142.7766  161.9576 C.ar    1  UNL1        0.0352
     16 C         140.1348  142.0944  161.0415 C.ar    1  UNL1        0.0826
     17 C         142.0407  142.8637  165.8138 C.ar    1  UNL1        0.0213
     18 C         140.7432  142.8845  166.5664 C.ar    1  UNL1        0.0029
     19 C         140.7240  142.5869  168.0364 C.ar    1  UNL1        0.0165
     20 C         142.0023  142.2685  168.7539 C.ar    1  UNL1        0.0828
     21 N         143.2997  142.2477  168.0014 N.ar    1  UNL1       -0.2464
     22 C         143.3189  142.5453  166.5314 C.ar    1  UNL1        0.0985
     23 C         141.9831  141.9709  170.2240 C.3     1  UNL1        0.1962
     24 S         141.0395  140.9396  170.7682 S.O2    1  UNL1       -0.0025
     25 C         140.0959  139.9084  171.3123 C.3     1  UNL1        0.1765
     26 O         141.6244  139.9154  169.8414 O.2     1  UNL1       -0.1726
     27 O         140.4546  141.9638  171.6949 O.2     1  UNL1       -0.1726
     28 C         138.1607  139.6905  164.5163 C.3     1  UNL1        0.1191
     29 C         139.0157  139.2465  163.3666 C.3     1  UNL1        0.0524
     30 C         138.6820  140.5101  162.6304 C.3     1  UNL1        0.0947
     31 C         137.8270  140.9541  163.7802 C.3     1  UNL1        0.0524
     32 C         138.6947  139.3129  167.0308 C.3     1  UNL1        0.1740
     33 O         137.7921  139.1109  165.8498 O.3     1  UNL1       -0.3534
@<TRIPOS>BOND
     1    32    33    1
     2    28    33    1
     3    28    29    1
     4    29    30    1
     5    30     1    1
     6     1     2   ar
     7     2     3    2
     8     2     4   ar
     9     4     5    1
    10     4     6   ar
    11     6     7   ar
    12     7     8   ar
    13     8     9   ar
    14     9    10   ar
    15    10    11   ar
    16    11    12    1
    17    11    13   ar
    18    13    17    1
    19    17    18   ar
    20    18    19   ar
    21    19    20   ar
    22    20    23    1
    23    23    24    1
    24    24    25    1
    25    24    26    2
    26    24    27    2
    27    20    21   ar
    28    21    22   ar
    29    13    14   ar
    30    14    15   ar
    31    15    16   ar
    32    30    31    1
    33    31    28    1
    34    16     1   ar
    35    16     6   ar
    36    15     9   ar
    37    22    17   ar
@<TRIPOS>MOLECULE
*****
 33 37 0 0 0
SMALL
GASTEIGER

@<TRIPOS>ATOM
      1 N         142.7276  142.3044  160.8297 N.ar    1  UNL1       -0.2815
      2 C         143.3395  142.4411  159.4671 C.ar    1  UNL1        0.3316
      3 O         144.4851  141.6353  158.9301 O.2     1  UNL1       -0.2463
      4 N         142.6047  143.5251  158.7357 N.ar    1  UNL1       -0.2765
      5 C         142.8864  143.9937  157.3389 C.3     1  UNL1        0.1352
      6 C         141.5387  144.0583  159.6463 C.ar    1  UNL1        0.0989
      7 C         140.5086  145.1334  159.4643 C.ar    1  UNL1        0.1175
      8 N         139.5545  145.4539  160.5764 N.ar    1  UNL1       -0.2422
      9 C         139.6305  144.6995  161.8706 C.ar    1  UNL1        0.0850
     10 C         138.6764  145.0201  162.9828 C.ar    1  UNL1        0.0488
     11 C         138.7524  144.2656  164.2770 C.ar    1  UNL1        0.1416
     12 F         137.7983  144.5862  165.3892 F       1  UNL1       -0.2041
     13 C         139.7825  143.1905  164.4591 C.ar    1  UNL1        0.0291
     14 C         140.7366  142.8699  163.3469 C.ar    1  UNL1        0.0053
     15 C         140.6606  143.6244  162.0527 C.ar    1  UNL1        0.0352
     16 C         141.6146  143.3038  160.9406 C.ar    1  UNL1        0.0826
     17 C         139.8585  142.4360  165.7533 C.ar    1  UNL1        0.0213
     18 C         139.4438  140.9955  165.8071 C.ar    1  UNL1        0.0029
     19 C         139.5198  140.2410  167.1013 C.ar    1  UNL1        0.0165
     20 C         140.0105  140.9271  168.3417 C.ar    1  UNL1        0.0828
     21 N         140.4251  142.3676  168.2879 N.ar    1  UNL1       -0.2464
     22 C         140.3491  143.1221  166.9937 C.ar    1  UNL1        0.0985
     23 C         140.0865  140.1726  169.6359 C.3     1  UNL1        0.1962
     24 S         141.3625  140.1626  170.4244 S.O2    1  UNL1       -0.0025
     25 C         142.6386  140.1525  171.2128 C.3     1  UNL1        0.1765
     26 O         140.6828  140.9085  171.5341 O.2     1  UNL1       -0.1726
     27 O         142.0423  139.4167  169.3147 O.2     1  UNL1       -0.1726
     28 C         143.7568  139.9710  163.4008 C.3     1  UNL1        0.1191
     29 C         142.7462  139.9502  162.2925 C.3     1  UNL1        0.0524
     30 C         143.1539  141.3378  161.8947 C.3     1  UNL1        0.0947
     31 C         144.1646  141.3586  163.0030 C.3     1  UNL1        0.0524
     32 C         143.3783  138.8727  165.7247 C.3     1  UNL1        0.1740
     33 O         144.1830  139.0044  164.4658 O.3     1  UNL1       -0.3534
@<TRIPOS>BOND
     1    32    33    1
     2    28    33    1
     3    28    29    1
     4    29    30    1
     5    30     1    1
     6     1     2   ar
     7     2     3    2
     8     2     4   ar
     9     4     5    1
    10     4     6   ar
    11     6     7   ar
    12     7     8   ar
    13     8     9   ar
    14     9    10   ar
    15    10    11   ar
    16    11    12    1
    17    11    13   ar
    18    13    17    1
    19    17    18   ar
    20    18    19   ar
    21    19    20   ar
    22    20    23    1
    23    23    24    1
    24    24    25    1
    25    24    26    2
    26    24    27    2
    27    20    21   ar
    28    21    22   ar
    29    13    14   ar
    30    14    15   ar
    31    15    16   ar
    32    30    31    1
    33    31    28    1
    34    16     1   ar
    35    16     6   ar
    36    15     9   ar
    37    22    17   ar
@<TRIPOS>MOLECULE
*****
 33 37 0 0 0
SMALL
GASTEIGER

@<TRIPOS>ATOM
      1 N         140.0915  139.9869  166.6292 N.ar    1  UNL1       -0.2815
      2 C         139.4123  139.9023  167.9639 C.ar    1  UNL1        0.3316
      3 O         138.1777  139.1097  168.2762 O.2     1  UNL1       -0.2463
      4 N         140.1845  140.7494  168.9314 N.ar    1  UNL1       -0.2765
      5 C         139.8576  140.9527  170.3811 C.3     1  UNL1        0.1352
      6 C         141.3409  141.3576  168.1946 C.ar    1  UNL1        0.0989
      7 C         142.4388  142.2796  168.6356 C.ar    1  UNL1        0.1175
      8 N         143.4792  142.7303  167.6536 N.ar    1  UNL1       -0.2422
      9 C         143.4218  142.2590  166.2308 C.ar    1  UNL1        0.0850
     10 C         144.4623  142.7098  165.2488 C.ar    1  UNL1        0.0488
     11 C         144.4049  142.2385  163.8259 C.ar    1  UNL1        0.1416
     12 F         145.4454  142.6893  162.8440 F       1  UNL1       -0.2041
     13 C         143.3069  141.3165  163.3850 C.ar    1  UNL1        0.0291
     14 C         142.2665  140.8657  164.3669 C.ar    1  UNL1        0.0053
     15 C         142.3239  141.3370  165.7898 C.ar    1  UNL1        0.0352
     16 C         141.2835  140.8863  166.7718 C.ar    1  UNL1        0.0826
     17 C         143.2495  140.8452  161.9621 C.ar    1  UNL1        0.0213
     18 C         143.6724  139.4479  161.6172 C.ar    1  UNL1        0.0029
     19 C         143.6150  138.9766  160.1943 C.ar    1  UNL1        0.0165
     20 C         143.1347  139.9026  159.1164 C.ar    1  UNL1        0.0828
     21 N         142.7118  141.2998  159.4613 N.ar    1  UNL1       -0.2464
     22 C         142.7692  141.7711  160.8842 C.ar    1  UNL1        0.0985
     23 C         143.0772  139.4313  157.6935 C.3     1  UNL1        0.1962
     24 S         143.5876  140.3110  156.5909 S.O2    1  UNL1       -0.0025
     25 C         144.0979  141.1907  155.4883 C.3     1  UNL1        0.1765
     26 O         144.9920  140.1030  157.0749 O.2     1  UNL1       -0.1726
     27 O         142.1832  140.5191  156.1068 O.2     1  UNL1       -0.1726
     28 C         139.0386  138.3136  163.5951 C.3     1  UNL1        0.1191
     29 C         140.0090  138.0026  164.6958 C.3     1  UNL1        0.0524
     30 C         139.6554  139.2937  165.3724 C.3     1  UNL1        0.0947
     31 C         138.6849  139.6047  164.2717 C.3     1  UNL1        0.0524
     32 C         139.1315  138.0733  161.0098 C.3     1  UNL1        0.1740
     33 O         138.6025  137.6204  162.3383 O.3     1  UNL1       -0.3534
@<TRIPOS>BOND
     1    32    33    1
     2    28    33    1
     3    28    29    1
     4    29    30    1
     5    30     1    1
     6     1     2   ar
     7     2     3    2
     8     2     4   ar
     9     4     5    1
    10     4     6   ar
    11     6     7   ar
    12     7     8   ar
    13     8     9   ar
    14     9    10   ar
    15    10    11   ar
    16    11    12    1
    17    11    13   ar
    18    13    17    1
    19    17    18   ar
    20    18    19   ar
    21    19    20   ar
    22    20    23    1
    23    23    24    1
    24    24    25    1
    25    24    26    2
    26    24    27    2
    27    20    21   ar
    28    21    22   ar
    29    13    14   ar
    30    14    15   ar
    31    15    16   ar
    32    30    31    1
    33    31    28    1
    34    16     1   ar
    35    16     6   ar
    36    15     9   ar
    37    22    17   ar
@<TRIPOS>MOLECULE
*****
 33 37 0 0 0
SMALL
GASTEIGER

@<TRIPOS>ATOM
      1 N         140.7921  141.1161  159.4543 N.ar    1  UNL1       -0.2815
      2 C         141.0287  141.0392  157.9751 C.ar    1  UNL1        0.3316
      3 O         141.3648  139.8002  157.1993 O.2     1  UNL1       -0.2463
      4 N         140.8702  142.4187  157.4080 N.ar    1  UNL1       -0.2765
      5 C         141.0199  142.8016  155.9654 C.3     1  UNL1        0.1352
      6 C         140.5356  143.3483  158.5367 C.ar    1  UNL1        0.0989
      7 C         140.2686  144.8238  158.5762 C.ar    1  UNL1        0.1175
      8 N         139.9534  145.4942  159.8805 N.ar    1  UNL1       -0.2422
      9 C         139.9051  144.6892  161.1452 C.ar    1  UNL1        0.0850
     10 C         139.5898  145.3597  162.4495 C.ar    1  UNL1        0.0488
     11 C         139.5416  144.5546  163.7142 C.ar    1  UNL1        0.1416
     12 F         139.2263  145.2250  165.0185 F       1  UNL1       -0.2041
     13 C         139.8086  143.0790  163.6746 C.ar    1  UNL1        0.0291
     14 C         140.1238  142.4086  162.3704 C.ar    1  UNL1        0.0053
     15 C         140.1721  143.2137  161.1057 C.ar    1  UNL1        0.0352
     16 C         140.4873  142.5433  159.8014 C.ar    1  UNL1        0.0826
     17 C         139.7603  142.2740  164.9394 C.ar    1  UNL1        0.0213
     18 C         139.0311  140.9634  164.9668 C.ar    1  UNL1        0.0029
     19 C         138.9828  140.1583  166.2315 C.ar    1  UNL1        0.0165
     20 C         139.6638  140.6638  167.4688 C.ar    1  UNL1        0.0828
     21 N         140.3929  141.9744  167.4414 N.ar    1  UNL1       -0.2464
     22 C         140.4412  142.7794  166.1766 C.ar    1  UNL1        0.0985
     23 C         139.6155  139.8588  168.7335 C.3     1  UNL1        0.1962
     24 S         140.2705  140.3785  169.9789 S.O2    1  UNL1       -0.0025
     25 C         140.9255  140.8982  171.2242 C.3     1  UNL1        0.1765
     26 O         139.0069  141.1004  170.3423 O.2     1  UNL1       -0.1726
     27 O         141.5341  139.6567  169.6155 O.2     1  UNL1       -0.1726
     28 C         140.9319  138.3433  161.7795 C.3     1  UNL1        0.1191
     29 C         141.9255  139.3340  161.2491 C.3     1  UNL1        0.0524
     30 C         140.8500  139.9676  160.4174 C.3     1  UNL1        0.0947
     31 C         139.8563  138.9769  160.9478 C.3     1  UNL1        0.0524
     32 C         141.0908  137.4561  164.2162 C.3     1  UNL1        0.1740
     33 O         140.9899  137.1948  162.7426 O.3     1  UNL1       -0.3534
@<TRIPOS>BOND
     1    32    33    1
     2    28    33    1
     3    28    29    1
     4    29    30    1
     5    30     1    1
     6     1     2   ar
     7     2     3    2
     8     2     4   ar
     9     4     5    1
    10     4     6   ar
    11     6     7   ar
    12     7     8   ar
    13     8     9   ar
    14     9    10   ar
    15    10    11   ar
    16    11    12    1
    17    11    13   ar
    18    13    17    1
    19    17    18   ar
    20    18    19   ar
    21    19    20   ar
    22    20    23    1
    23    23    24    1
    24    24    25    1
    25    24    26    2
    26    24    27    2
    27    20    21   ar
    28    21    22   ar
    29    13    14   ar
    30    14    15   ar
    31    15    16   ar
    32    30    31    1
    33    31    28    1
    34    16     1   ar
    35    16     6   ar
    36    15     9   ar
    37    22    17   ar
@<TRIPOS>MOLECULE
*****
 33 37 0 0 0
SMALL
GASTEIGER

@<TRIPOS>ATOM
      1 N         139.8923  140.5588  166.6206 N.ar    1  UNL1       -0.2815
      2 C         139.4642  139.9388  167.9176 C.ar    1  UNL1        0.3316
      3 O         138.2304  139.1141  168.1358 O.2     1  UNL1       -0.2463
      4 N         140.4865  140.2884  168.9581 N.ar    1  UNL1       -0.2765
      5 C         140.4545  139.8746  170.3996 C.3     1  UNL1        0.1352
      6 C         141.5464  141.1244  168.3041 C.ar    1  UNL1        0.0989
      7 C         142.7985  141.7551  168.8375 C.ar    1  UNL1        0.1175
      8 N         143.6833  142.5529  167.9262 N.ar    1  UNL1       -0.2422
      9 C         143.3161  142.7200  166.4815 C.ar    1  UNL1        0.0850
     10 C         144.2010  143.5178  165.5701 C.ar    1  UNL1        0.0488
     11 C         143.8337  143.6849  164.1254 C.ar    1  UNL1        0.1416
     12 F         144.7186  144.4827  163.2141 F       1  UNL1       -0.2041
     13 C         142.5816  143.0542  163.5920 C.ar    1  UNL1        0.0291
     14 C         141.6968  142.2564  164.5034 C.ar    1  UNL1        0.0053
     15 C         142.0640  142.0893  165.9481 C.ar    1  UNL1        0.0352
     16 C         141.1792  141.2916  166.8594 C.ar    1  UNL1        0.0826
     17 C         142.2143  143.2213  162.1473 C.ar    1  UNL1        0.0213
     18 C         140.8387  143.6871  161.7722 C.ar    1  UNL1        0.0029
     19 C         140.4714  143.8542  160.3275 C.ar    1  UNL1        0.0165
     20 C         141.4798  143.5556  159.2579 C.ar    1  UNL1        0.0828
     21 N         142.8554  143.0898  159.6330 N.ar    1  UNL1       -0.2464
     22 C         143.2227  142.9227  161.0778 C.ar    1  UNL1        0.0985
     23 C         141.1126  143.7227  157.8132 C.3     1  UNL1        0.1962
     24 S         140.5421  145.0231  157.3299 S.O2    1  UNL1       -0.0025
     25 C         139.9716  146.3235  156.8467 C.3     1  UNL1        0.1765
     26 O         139.2781  144.3206  156.9316 O.2     1  UNL1       -0.1726
     27 O         141.8060  145.7257  157.7283 O.2     1  UNL1       -0.1726
     28 C         138.1286  140.3274  163.4662 C.3     1  UNL1        0.1191
     29 C         139.1502  139.4878  164.1743 C.3     1  UNL1        0.0524
     30 C         139.1618  140.4629  165.3140 C.3     1  UNL1        0.0947
     31 C         138.1401  141.3026  164.6058 C.3     1  UNL1        0.0524
     32 C         138.0412  140.7362  160.9020 C.3     1  UNL1        0.1740
     33 O         137.3981  140.2315  162.1596 O.3     1  UNL1       -0.3534
@<TRIPOS>BOND
     1    32    33    1
     2    28    33    1
     3    28    29    1
     4    29    30    1
     5    30     1    1
     6     1     2   ar
     7     2     3    2
     8     2     4   ar
     9     4     5    1
    10     4     6   ar
    11     6     7   ar
    12     7     8   ar
    13     8     9   ar
    14     9    10   ar
    15    10    11   ar
    16    11    12    1
    17    11    13   ar
    18    13    17    1
    19    17    18   ar
    20    18    19   ar
    21    19    20   ar
    22    20    23    1
    23    23    24    1
    24    24    25    1
    25    24    26    2
    26    24    27    2
    27    20    21   ar
    28    21    22   ar
    29    13    14   ar
    30    14    15   ar
    31    15    16   ar
    32    30    31    1
    33    31    28    1
    34    16     1   ar
    35    16     6   ar
    36    15     9   ar
    37    22    17   ar
@<TRIPOS>MOLECULE
*****
 33 37 0 0 0
SMALL
GASTEIGER

@<TRIPOS>ATOM
      1 N         139.1064  141.3154  160.0242 N.ar    1  UNL1       -0.2815
      2 C         138.4408  141.3676  158.6810 C.ar    1  UNL1        0.3316
      3 O         137.4958  140.3439  158.1249 O.2     1  UNL1       -0.2463
      4 N         138.8861  142.6231  157.9915 N.ar    1  UNL1       -0.2765
      5 C         138.4647  143.0754  156.6248 C.3     1  UNL1        0.1352
      6 C         139.8269  143.3468  158.9086 C.ar    1  UNL1        0.0989
      7 C         140.5772  144.6374  158.7620 C.ar    1  UNL1        0.1175
      8 N         141.4636  145.1197  159.8717 N.ar    1  UNL1       -0.2422
      9 C         141.5998  144.3116  161.1280 C.ar    1  UNL1        0.0850
     10 C         142.4863  144.7940  162.2378 C.ar    1  UNL1        0.0488
     11 C         142.6224  143.9858  163.4941 C.ar    1  UNL1        0.1416
     12 F         143.5088  144.4681  164.6038 F       1  UNL1       -0.2041
     13 C         141.8721  142.6952  163.6406 C.ar    1  UNL1        0.0291
     14 C         140.9856  142.2128  162.5309 C.ar    1  UNL1        0.0053
     15 C         140.8495  143.0210  161.2746 C.ar    1  UNL1        0.0352
     16 C         139.9631  142.5387  160.1649 C.ar    1  UNL1        0.0826
     17 C         142.0082  141.8870  164.8969 C.ar    1  UNL1        0.0213
     18 C         142.8636  140.6547  164.9070 C.ar    1  UNL1        0.0029
     19 C         142.9997  139.8465  166.1633 C.ar    1  UNL1        0.0165
     20 C         142.2805  140.2706  167.4095 C.ar    1  UNL1        0.0828
     21 N         141.4252  141.5028  167.3994 N.ar    1  UNL1       -0.2464
     22 C         141.2891  142.3110  166.1431 C.ar    1  UNL1        0.0985
     23 C         142.4166  139.4624  168.6658 C.3     1  UNL1        0.1962
     24 S         142.1324  140.0922  169.9973 S.O2    1  UNL1       -0.0025
     25 C         141.8482  140.7220  171.3286 C.3     1  UNL1        0.1765
     26 O         140.7758  139.4522  170.0104 O.2     1  UNL1       -0.1726
     27 O         143.4889  140.7322  169.9841 O.2     1  UNL1       -0.1726
     28 C         138.7140  138.6962  162.4940 C.3     1  UNL1        0.1191
     29 C         139.6760  138.9629  161.3744 C.3     1  UNL1        0.0524
     30 C         138.9439  140.2305  161.0472 C.3     1  UNL1        0.0947
     31 C         137.9818  139.9638  162.1668 C.3     1  UNL1        0.0524
     32 C         139.1649  137.7649  164.8771 C.3     1  UNL1        0.1740
     33 O         138.5515  137.6112  163.5169 O.3     1  UNL1       -0.3534
@<TRIPOS>BOND
     1    32    33    1
     2    28    33    1
     3    28    29    1
     4    29    30    1
     5    30     1    1
     6     1     2   ar
     7     2     3    2
     8     2     4   ar
     9     4     5    1
    10     4     6   ar
    11     6     7   ar
    12     7     8   ar
    13     8     9   ar
    14     9    10   ar
    15    10    11   ar
    16    11    12    1
    17    11    13   ar
    18    13    17    1
    19    17    18   ar
    20    18    19   ar
    21    19    20   ar
    22    20    23    1
    23    23    24    1
    24    24    25    1
    25    24    26    2
    26    24    27    2
    27    20    21   ar
    28    21    22   ar
    29    13    14   ar
    30    14    15   ar
    31    15    16   ar
    32    30    31    1
    33    31    28    1
    34    16     1   ar
    35    16     6   ar
    36    15     9   ar
    37    22    17   ar
@<TRIPOS>MOLECULE
*****
 33 37 0 0 0
SMALL
GASTEIGER

@<TRIPOS>ATOM
      1 N         142.0776  140.4117  160.2593 N.ar    1  UNL1       -0.2815
      2 C         142.4957  140.1393  158.8447 C.ar    1  UNL1        0.3316
      3 O         143.6948  139.3461  158.4169 O.2     1  UNL1       -0.2463
      4 N         141.5041  140.7993  157.9331 N.ar    1  UNL1       -0.2765
      5 C         141.5374  140.7821  156.4336 C.3     1  UNL1        0.1352
      6 C         140.4732  141.4797  158.7842 C.ar    1  UNL1        0.0989
      7 C         139.2576  142.2864  158.4359 C.ar    1  UNL1        0.1175
      8 N         138.3964  142.8535  159.5252 N.ar    1  UNL1       -0.2422
      9 C         138.7509  142.6140  160.9629 C.ar    1  UNL1        0.0850
     10 C         137.8896  143.1812  162.0523 C.ar    1  UNL1        0.0488
     11 C         138.2441  142.9416  163.4900 C.ar    1  UNL1        0.1416
     12 F         137.3830  143.5087  164.5793 F       1  UNL1       -0.2041
     13 C         139.4599  142.1349  163.8383 C.ar    1  UNL1        0.0291
     14 C         140.3210  141.5677  162.7490 C.ar    1  UNL1        0.0053
     15 C         139.9665  141.8073  161.3113 C.ar    1  UNL1        0.0352
     16 C         140.8277  141.2401  160.2219 C.ar    1  UNL1        0.0826
     17 C         139.8144  141.8953  165.2760 C.ar    1  UNL1        0.0213
     18 C         140.2410  143.0417  166.1443 C.ar    1  UNL1        0.0029
     19 C         140.5955  142.8021  167.5820 C.ar    1  UNL1        0.0165
     20 C         140.5233  141.4162  168.1514 C.ar    1  UNL1        0.0828
     21 N         140.0967  140.2699  167.2831 N.ar    1  UNL1       -0.2464
     22 C         139.7422  140.5095  165.8454 C.ar    1  UNL1        0.0985
     23 C         140.8778  141.1767  169.5890 C.3     1  UNL1        0.1962
     24 S         141.6905  139.9751  169.9710 S.O2    1  UNL1       -0.0025
     25 C         142.5032  138.7736  170.3528 C.3     1  UNL1        0.1765
     26 O         140.4693  139.3377  170.5644 O.2     1  UNL1       -0.1726
     27 O         142.9118  140.6125  169.3775 O.2     1  UNL1       -0.1726
     28 C         143.7860  139.2699  163.2412 C.3     1  UNL1        0.1191
     29 C         143.8412  140.5074  162.3954 C.3     1  UNL1        0.0524
     30 C         142.7853  139.9388  161.4944 C.3     1  UNL1        0.0947
     31 C         142.7301  138.7012  162.3403 C.3     1  UNL1        0.0524
     32 C         143.7557  138.7180  165.7798 C.3     1  UNL1        0.1740
     33 O         144.4937  138.7970  164.4763 O.3     1  UNL1       -0.3534
@<TRIPOS>BOND
     1    32    33    1
     2    28    33    1
     3    28    29    1
     4    29    30    1
     5    30     1    1
     6     1     2   ar
     7     2     3    2
     8     2     4   ar
     9     4     5    1
    10     4     6   ar
    11     6     7   ar
    12     7     8   ar
    13     8     9   ar
    14     9    10   ar
    15    10    11   ar
    16    11    12    1
    17    11    13   ar
    18    13    17    1
    19    17    18   ar
    20    18    19   ar
    21    19    20   ar
    22    20    23    1
    23    23    24    1
    24    24    25    1
    25    24    26    2
    26    24    27    2
    27    20    21   ar
    28    21    22   ar
    29    13    14   ar
    30    14    15   ar
    31    15    16   ar
    32    30    31    1
    33    31    28    1
    34    16     1   ar
    35    16     6   ar
    36    15     9   ar
    37    22    17   ar
