@<TRIPOS>MOLECULE
*****
 29 33 0 0 0
SMALL
GASTEIGER

@<TRIPOS>ATOM
      1 C         140.8339  139.5492  164.3844 C.ar    1  UNL1        0.1452
      2 N         139.8226  139.9333  165.4235 N.ar    1  UNL1       -0.2289
      3 C         140.4865  139.8583  166.7664 C.ar    1  UNL1        0.0992
      4 C         139.9802  140.1264  168.1527 C.ar    1  UNL1        0.0320
      5 C         140.8956  139.9640  169.3299 C.ar    1  UNL1        0.0593
      6 CL        140.3892  140.2321  170.7162 Cl      1  UNL1       -0.0822
      7 C         142.3172  139.5335  169.1208 C.ar    1  UNL1        0.0130
      8 C         142.8234  139.2655  167.7345 C.ar    1  UNL1        0.0196
      9 C         141.9081  139.4279  166.5574 C.ar    1  UNL1        0.0787
     10 N         142.1228  139.2368  165.0851 N.ar    1  UNL1       -0.3131
     11 C         140.5977  139.4882  162.9042 C.3     1  UNL1        0.1908
     12 C         139.8344  143.0480  161.5587 C.ar    1  UNL1        0.2069
     13 N         140.4067  142.1374  162.6043 N.ar    1  UNL1       -0.1501
     14 N         140.1834  140.7225  162.1594 N.ar    1  UNL1       -0.2404
     15 C         139.4730  140.7585  160.8387 C.ar    1  UNL1        0.1003
     16 C         138.9947  139.6683  159.9263 C.ar    1  UNL1        0.1176
     17 N         138.3007  140.0153  158.6426 N.ar    1  UNL1       -0.2408
     18 C         138.0850  141.4526  158.2713 C.ar    1  UNL1        0.0991
     19 C         138.5634  142.5428  159.1838 C.ar    1  UNL1        0.0251
     20 C         139.2573  142.1957  160.4675 C.ar    1  UNL1        0.0572
     21 C         139.8424  146.0470  161.6362 C.3     1  UNL1        0.1835
     22 S         139.8384  144.5475  161.5974 S.O2    1  UNL1        0.0285
     23 O         141.2413  144.5574  161.0669 O.2     1  UNL1       -0.1671
     24 O         138.4354  144.5375  162.1280 O.2     1  UNL1       -0.1671
     25 C         143.4018  138.8086  164.4289 C.3     1  UNL1        0.1122
     26 C         144.2414  139.8125  163.6958 C.3     1  UNL1        0.0818
     27 C         144.3075  140.3098  162.2822 C.3     1  UNL1        0.1465
     28 O         145.4287  141.2321  162.6592 O.3     1  UNL1       -0.3535
     29 C         145.3627  140.7349  164.0728 C.3     1  UNL1        0.1465
@<TRIPOS>BOND
     1    21    22    1
     2    22    23    2
     3    22    24    2
     4    22    12    1
     5    12    13   ar
     6    13    14   ar
     7    14    11    1
     8    11     1    1
     9     1     2   ar
    10     2     3   ar
    11     3     4   ar
    12     4     5   ar
    13     5     6    1
    14     5     7   ar
    15     7     8   ar
    16     8     9   ar
    17     9    10   ar
    18    10    25    1
    19    25    26    1
    20    26    27    1
    21    27    28    1
    22    28    29    1
    23    14    15   ar
    24    15    16   ar
    25    16    17   ar
    26    17    18   ar
    27    18    19   ar
    28    19    20   ar
    29    20    12   ar
    30    10     1   ar
    31    29    26    1
    32    20    15   ar
    33     9     3   ar
@<TRIPOS>MOLECULE
*****
 29 33 0 0 0
SMALL
GASTEIGER

@<TRIPOS>ATOM
      1 C         141.7230  138.0711  162.3597 C.ar    1  UNL1        0.1452
      2 N         140.7381  137.1634  163.0351 N.ar    1  UNL1       -0.2289
      3 C         140.0467  137.9479  164.1104 C.ar    1  UNL1        0.0992
      4 C         138.9814  137.5742  165.0981 C.ar    1  UNL1        0.0320
      5 C         138.4736  138.5930  166.0750 C.ar    1  UNL1        0.0593
      6 CL        137.4083  138.2192  167.0627 Cl      1  UNL1       -0.0822
      7 C         139.0311  139.9855  166.0642 C.ar    1  UNL1        0.0130
      8 C         140.0963  140.3592  165.0765 C.ar    1  UNL1        0.0196
      9 C         140.6041  139.3404  164.0997 C.ar    1  UNL1        0.0787
     10 N         141.6402  139.4166  163.0176 N.ar    1  UNL1       -0.3131
     11 C         142.6312  137.6987  161.2254 C.3     1  UNL1        0.1908
     12 C         143.5941  140.0542  158.2946 C.ar    1  UNL1        0.2069
     13 N         143.9571  139.2821  159.5284 N.ar    1  UNL1       -0.1501
     14 N         142.7234  138.5827  160.0171 N.ar    1  UNL1       -0.2404
     15 C         141.5980  138.9225  159.0854 C.ar    1  UNL1        0.1003
     16 C         140.1528  138.5214  159.0688 C.ar    1  UNL1        0.1176
     17 N         139.2457  139.0296  157.9877 N.ar    1  UNL1       -0.2408
     18 C         139.7839  139.9390  156.9231 C.ar    1  UNL1        0.0991
     19 C         141.2291  140.3402  156.9397 C.ar    1  UNL1        0.0251
     20 C         142.1362  139.8320  158.0208 C.ar    1  UNL1        0.0572
     21 C         145.4571  141.7459  156.6613 C.3     1  UNL1        0.1835
     22 S         144.5256  140.9000  157.4779 S.O2    1  UNL1        0.0285
     23 O         144.8662  139.7088  156.6325 O.2     1  UNL1       -0.1671
     24 O         144.1851  142.0913  158.3234 O.2     1  UNL1       -0.1671
     25 C         142.4510  140.6258  162.6568 C.3     1  UNL1        0.1122
     26 C         143.8431  140.7827  163.1932 C.3     1  UNL1        0.0818
     27 C         144.8274  139.8756  163.8700 C.3     1  UNL1        0.1465
     28 O         145.8117  141.0046  163.9516 O.3     1  UNL1       -0.3535
     29 C         144.8273  141.9118  163.2747 C.3     1  UNL1        0.1465
@<TRIPOS>BOND
     1    21    22    1
     2    22    23    2
     3    22    24    2
     4    22    12    1
     5    12    13   ar
     6    13    14   ar
     7    14    11    1
     8    11     1    1
     9     1     2   ar
    10     2     3   ar
    11     3     4   ar
    12     4     5   ar
    13     5     6    1
    14     5     7   ar
    15     7     8   ar
    16     8     9   ar
    17     9    10   ar
    18    10    25    1
    19    25    26    1
    20    26    27    1
    21    27    28    1
    22    28    29    1
    23    14    15   ar
    24    15    16   ar
    25    16    17   ar
    26    17    18   ar
    27    18    19   ar
    28    19    20   ar
    29    20    12   ar
    30    10     1   ar
    31    29    26    1
    32    20    15   ar
    33     9     3   ar
@<TRIPOS>MOLECULE
*****
 29 33 0 0 0
SMALL
GASTEIGER

@<TRIPOS>ATOM
      1 C         141.0095  139.1963  164.2998 C.ar    1  UNL1        0.1452
      2 N         142.2470  139.1262  165.1447 N.ar    1  UNL1       -0.2289
      3 C         141.8575  139.4231  166.5625 C.ar    1  UNL1        0.0992
      4 C         142.6579  139.4953  167.8291 C.ar    1  UNL1        0.0320
      5 C         141.9801  139.8211  169.1270 C.ar    1  UNL1        0.0593
      6 CL        142.7806  139.8933  170.3936 Cl      1  UNL1       -0.0822
      7 C         140.5021  140.0746  169.1584 C.ar    1  UNL1        0.0130
      8 C         139.7018  140.0024  167.8918 C.ar    1  UNL1        0.0196
      9 C         140.3795  139.6766  166.5939 C.ar    1  UNL1        0.0787
     10 N         139.8554  139.5365  165.1954 N.ar    1  UNL1       -0.3131
     11 C         140.9388  138.9665  162.8191 C.3     1  UNL1        0.1908
     12 C         140.5428  142.3624  160.9815 C.ar    1  UNL1        0.2069
     13 N         140.9612  141.5617  162.1790 N.ar    1  UNL1       -0.1501
     14 N         140.6757  140.1171  161.8933 N.ar    1  UNL1       -0.2404
     15 C         140.0808  140.0249  160.5194 C.ar    1  UNL1        0.1003
     16 C         139.6034  138.8568  159.7087 C.ar    1  UNL1        0.1176
     17 N         139.0438  139.0763  158.3344 N.ar    1  UNL1       -0.2408
     18 C         138.9617  140.4640  157.7709 C.ar    1  UNL1        0.0991
     19 C         139.4392  141.6321  158.5816 C.ar    1  UNL1        0.0251
     20 C         139.9988  141.4126  159.9558 C.ar    1  UNL1        0.0572
     21 C         140.7566  145.3405  160.6892 C.3     1  UNL1        0.1835
     22 S         140.6498  143.8514  160.8354 S.O2    1  UNL1        0.0285
     23 O         142.1343  143.7276  160.6604 O.2     1  UNL1       -0.1671
     24 O         139.1652  143.9752  161.0103 O.2     1  UNL1       -0.1671
     25 C         138.4278  139.7066  164.7677 C.3     1  UNL1        0.1122
     26 C         137.9834  140.9901  164.1311 C.3     1  UNL1        0.0818
     27 C         137.9784  142.4324  164.5434 C.3     1  UNL1        0.1465
     28 O         137.3550  142.8053  163.2310 O.3     1  UNL1       -0.3535
     29 C         137.3600  141.3630  162.8187 C.3     1  UNL1        0.1465
@<TRIPOS>BOND
     1    21    22    1
     2    22    23    2
     3    22    24    2
     4    22    12    1
     5    12    13   ar
     6    13    14   ar
     7    14    11    1
     8    11     1    1
     9     1     2   ar
    10     2     3   ar
    11     3     4   ar
    12     4     5   ar
    13     5     6    1
    14     5     7   ar
    15     7     8   ar
    16     8     9   ar
    17     9    10   ar
    18    10    25    1
    19    25    26    1
    20    26    27    1
    21    27    28    1
    22    28    29    1
    23    14    15   ar
    24    15    16   ar
    25    16    17   ar
    26    17    18   ar
    27    18    19   ar
    28    19    20   ar
    29    20    12   ar
    30    10     1   ar
    31    29    26    1
    32    20    15   ar
    33     9     3   ar
@<TRIPOS>MOLECULE
*****
 29 33 0 0 0
SMALL
GASTEIGER

@<TRIPOS>ATOM
      1 C         140.2408  140.2255  164.5707 C.ar    1  UNL1        0.1452
      2 N         139.3154  140.4123  165.7363 N.ar    1  UNL1       -0.2289
      3 C         140.1047  140.1980  166.9937 C.ar    1  UNL1        0.0992
      4 C         139.7191  140.2523  168.4423 C.ar    1  UNL1        0.0320
      5 C         140.7468  139.9873  169.5024 C.ar    1  UNL1        0.0593
      6 CL        140.3611  140.0417  170.9510 Cl      1  UNL1       -0.0822
      7 C         142.1599  139.6680  169.1139 C.ar    1  UNL1        0.0130
      8 C         142.5455  139.6137  167.6653 C.ar    1  UNL1        0.0196
      9 C         141.5178  139.8787  166.6053 C.ar    1  UNL1        0.0787
     10 N         141.6020  139.8957  165.1077 N.ar    1  UNL1       -0.3131
     11 C         139.8701  140.3471  163.1223 C.3     1  UNL1        0.1908
     12 C         141.8328  142.5884  160.6344 C.ar    1  UNL1        0.2069
     13 N         141.5166  141.2425  161.2164 N.ar    1  UNL1       -0.1501
     14 N         140.4769  141.4308  162.2812 N.ar    1  UNL1       -0.2404
     15 C         140.1507  142.8929  162.3573 C.ar    1  UNL1        0.1003
     16 C         139.1989  143.6652  163.2218 C.ar    1  UNL1        0.1176
     17 N         139.0850  145.1530  163.0686 N.ar    1  UNL1       -0.2408
     18 C         139.9230  145.8684  162.0508 C.ar    1  UNL1        0.0991
     19 C         140.8749  145.0961  161.1863 C.ar    1  UNL1        0.0251
     20 C         140.9887  143.6083  161.3395 C.ar    1  UNL1        0.0572
     21 C         143.8070  143.1428  158.4446 C.3     1  UNL1        0.1835
     22 S         142.8200  142.8656  159.5396 S.O2    1  UNL1        0.0285
     23 O         143.8178  143.3326  160.5574 O.2     1  UNL1       -0.1671
     24 O         141.8221  142.3986  158.5216 O.2     1  UNL1       -0.1671
     25 C         142.8314  139.6296  164.2907 C.3     1  UNL1        0.1122
     26 C         143.8368  140.7209  164.0712 C.3     1  UNL1        0.0818
     27 C         143.7756  142.2169  163.9805 C.3     1  UNL1        0.1465
     28 O         145.2587  142.2643  163.7609 O.3     1  UNL1       -0.3535
     29 C         145.3200  140.7683  163.8515 C.3     1  UNL1        0.1465
@<TRIPOS>BOND
     1    21    22    1
     2    22    23    2
     3    22    24    2
     4    22    12    1
     5    12    13   ar
     6    13    14   ar
     7    14    11    1
     8    11     1    1
     9     1     2   ar
    10     2     3   ar
    11     3     4   ar
    12     4     5   ar
    13     5     6    1
    14     5     7   ar
    15     7     8   ar
    16     8     9   ar
    17     9    10   ar
    18    10    25    1
    19    25    26    1
    20    26    27    1
    21    27    28    1
    22    28    29    1
    23    14    15   ar
    24    15    16   ar
    25    16    17   ar
    26    17    18   ar
    27    18    19   ar
    28    19    20   ar
    29    20    12   ar
    30    10     1   ar
    31    29    26    1
    32    20    15   ar
    33     9     3   ar
@<TRIPOS>MOLECULE
*****
 29 33 0 0 0
SMALL
GASTEIGER

@<TRIPOS>ATOM
      1 C         143.2741  140.9964  165.6531 C.ar    1  UNL1        0.1452
      2 N         143.0144  142.2259  166.4721 N.ar    1  UNL1       -0.2289
      3 C         141.9737  141.8882  167.4980 C.ar    1  UNL1        0.0992
      4 C         141.3256  142.7045  168.5768 C.ar    1  UNL1        0.0320
      5 C         140.2940  142.0825  169.4706 C.ar    1  UNL1        0.0593
      6 CL        139.6460  142.8989  170.5494 Cl      1  UNL1       -0.0822
      7 C         139.9105  140.6442  169.2858 C.ar    1  UNL1        0.0130
      8 C         140.5585  139.8279  168.2071 C.ar    1  UNL1        0.0196
      9 C         141.5901  140.4499  167.3132 C.ar    1  UNL1        0.0787
     10 N         142.3938  139.8987  166.1730 N.ar    1  UNL1       -0.3131
     11 C         144.2439  140.8842  164.5142 C.3     1  UNL1        0.1908
     12 C         143.0616  139.8983  160.9511 C.ar    1  UNL1        0.2069
     13 N         143.6053  139.5301  162.2997 N.ar    1  UNL1       -0.1501
     14 N         143.7382  140.7885  163.1052 N.ar    1  UNL1       -0.2404
     15 C         143.2767  141.9344  162.2544 C.ar    1  UNL1        0.1003
     16 C         143.1832  143.4077  162.5200 C.ar    1  UNL1        0.1176
     17 N         142.6715  144.3309  161.4542 N.ar    1  UNL1       -0.2408
     18 C         142.2533  143.7807  160.1229 C.ar    1  UNL1        0.0991
     19 C         142.3468  142.3074  159.8573 C.ar    1  UNL1        0.0251
     20 C         142.8585  141.3843  160.9231 C.ar    1  UNL1        0.0572
     21 C         142.4820  137.9967  158.7043 C.3     1  UNL1        0.1835
     22 S         142.7718  138.9476  159.8277 S.O2    1  UNL1        0.0285
     23 O         144.1149  139.2448  159.2297 O.2     1  UNL1       -0.1671
     24 O         141.4287  138.6503  160.4257 O.2     1  UNL1       -0.1671
     25 C         142.3287  138.4962  165.6452 C.3     1  UNL1        0.1122
     26 C         141.2117  138.0903  164.7300 C.3     1  UNL1        0.0818
     27 C         139.7546  138.4289  164.6199 C.3     1  UNL1        0.1465
     28 O         139.6321  137.5162  163.4358 O.3     1  UNL1       -0.3535
     29 C         141.0892  137.1776  163.5459 C.3     1  UNL1        0.1465
@<TRIPOS>BOND
     1    21    22    1
     2    22    23    2
     3    22    24    2
     4    22    12    1
     5    12    13   ar
     6    13    14   ar
     7    14    11    1
     8    11     1    1
     9     1     2   ar
    10     2     3   ar
    11     3     4   ar
    12     4     5   ar
    13     5     6    1
    14     5     7   ar
    15     7     8   ar
    16     8     9   ar
    17     9    10   ar
    18    10    25    1
    19    25    26    1
    20    26    27    1
    21    27    28    1
    22    28    29    1
    23    14    15   ar
    24    15    16   ar
    25    16    17   ar
    26    17    18   ar
    27    18    19   ar
    28    19    20   ar
    29    20    12   ar
    30    10     1   ar
    31    29    26    1
    32    20    15   ar
    33     9     3   ar
@<TRIPOS>MOLECULE
*****
 29 33 0 0 0
SMALL
GASTEIGER

@<TRIPOS>ATOM
      1 C         141.5085  140.9627  164.7662 C.ar    1  UNL1        0.1452
      2 N         140.4808  140.7877  165.8448 N.ar    1  UNL1       -0.2289
      3 C         141.0621  141.3050  167.1271 C.ar    1  UNL1        0.0992
      4 C         140.5078  141.3895  168.5184 C.ar    1  UNL1        0.0320
      5 C         141.3403  141.9686  169.6236 C.ar    1  UNL1        0.0593
      6 CL        140.7858  142.0531  171.0148 Cl      1  UNL1       -0.0822
      7 C         142.7272  142.4633  169.3376 C.ar    1  UNL1        0.0130
      8 C         143.2816  142.3788  167.9464 C.ar    1  UNL1        0.0196
      9 C         142.4490  141.7996  166.8412 C.ar    1  UNL1        0.0787
     10 N         142.7249  141.5881  165.3820 N.ar    1  UNL1       -0.3131
     11 C         141.3479  140.5795  163.3248 C.3     1  UNL1        0.1908
     12 C         141.5650  142.8157  160.1598 C.ar    1  UNL1        0.2069
     13 N         141.8254  141.5197  160.8685 N.ar    1  UNL1       -0.1501
     14 N         141.2978  141.6422  162.2673 N.ar    1  UNL1       -0.2404
     15 C         140.7114  143.0140  162.4231 C.ar    1  UNL1        0.1003
     16 C         140.0484  143.6964  163.5827 C.ar    1  UNL1        0.1176
     17 N         139.5505  145.1041  163.4397 N.ar    1  UNL1       -0.2408
     18 C         139.7157  145.8294  162.1372 C.ar    1  UNL1        0.0991
     19 C         140.3787  145.1470  160.9776 C.ar    1  UNL1        0.0251
     20 C         140.8765  143.7393  161.1205 C.ar    1  UNL1        0.0572
     21 C         142.2934  143.4496  157.3194 C.3     1  UNL1        0.1835
     22 S         141.9292  143.1327  158.7396 S.O2    1  UNL1        0.0285
     23 O         140.6747  142.4594  158.2677 O.2     1  UNL1       -0.1671
     24 O         143.1838  143.8060  159.2115 O.2     1  UNL1       -0.1671
     25 C         143.9943  141.9401  164.6646 C.3     1  UNL1        0.1122
     26 C         144.0609  143.1797  163.8225 C.3     1  UNL1        0.0818
     27 C         143.6937  144.6200  164.0242 C.3     1  UNL1        0.1465
     28 O         144.1550  144.9326  162.6316 O.3     1  UNL1       -0.3535
     29 C         144.5222  143.4923  162.4298 C.3     1  UNL1        0.1465
@<TRIPOS>BOND
     1    21    22    1
     2    22    23    2
     3    22    24    2
     4    22    12    1
     5    12    13   ar
     6    13    14   ar
     7    14    11    1
     8    11     1    1
     9     1     2   ar
    10     2     3   ar
    11     3     4   ar
    12     4     5   ar
    13     5     6    1
    14     5     7   ar
    15     7     8   ar
    16     8     9   ar
    17     9    10   ar
    18    10    25    1
    19    25    26    1
    20    26    27    1
    21    27    28    1
    22    28    29    1
    23    14    15   ar
    24    15    16   ar
    25    16    17   ar
    26    17    18   ar
    27    18    19   ar
    28    19    20   ar
    29    20    12   ar
    30    10     1   ar
    31    29    26    1
    32    20    15   ar
    33     9     3   ar
@<TRIPOS>MOLECULE
*****
 29 33 0 0 0
SMALL
GASTEIGER

@<TRIPOS>ATOM
      1 C         143.8882  139.9096  163.6719 C.ar    1  UNL1        0.1452
      2 N         143.6690  139.0198  162.4845 N.ar    1  UNL1       -0.2289
      3 C         143.8358  139.8497  161.2463 C.ar    1  UNL1        0.0992
      4 C         143.7359  139.5094  159.7888 C.ar    1  UNL1        0.0320
      5 C         143.9584  140.5718  158.7536 C.ar    1  UNL1        0.0593
      6 CL        143.8584  140.2314  157.2961 Cl      1  UNL1       -0.0822
      7 C         144.2807  141.9746  159.1757 C.ar    1  UNL1        0.0130
      8 C         144.3807  142.3149  160.6332 C.ar    1  UNL1        0.0196
      9 C         144.1582  141.2525  161.6684 C.ar    1  UNL1        0.0787
     10 N         144.1906  141.2895  163.1676 N.ar    1  UNL1       -0.3131
     11 C         143.8174  139.4927  165.1112 C.3     1  UNL1        0.1908
     12 C         141.1713  140.8805  167.5885 C.ar    1  UNL1        0.2069
     13 N         142.5682  140.8543  167.0426 N.ar    1  UNL1       -0.1501
     14 N         142.6142  139.8434  165.9354 N.ar    1  UNL1       -0.2404
     15 C         141.2458  139.2448  165.7970 C.ar    1  UNL1        0.1003
     16 C         140.6966  138.1990  164.8726 C.ar    1  UNL1        0.1176
     17 N         139.2556  137.7940  164.9700 N.ar    1  UNL1       -0.2408
     18 C         138.3638  138.4350  165.9917 C.ar    1  UNL1        0.0991
     19 C         138.9130  139.4809  166.9160 C.ar    1  UNL1        0.0251
     20 C         140.3540  139.8858  166.8187 C.ar    1  UNL1        0.0572
     21 C         140.1851  142.6173  169.8271 C.3     1  UNL1        0.1835
     22 S         140.6782  141.7489  168.7077 S.O2    1  UNL1        0.0285
     23 O         140.5185  142.8923  167.7502 O.2     1  UNL1       -0.1671
     24 O         140.8380  140.6054  169.6653 O.2     1  UNL1       -0.1671
     25 C         144.4753  142.4948  164.0139 C.3     1  UNL1        0.1122
     26 C         143.5352  143.6635  163.9950 C.3     1  UNL1        0.0818
     27 C         142.0899  143.8678  164.3406 C.3     1  UNL1        0.1465
     28 O         142.2057  145.3163  163.9684 O.3     1  UNL1       -0.3535
     29 C         143.6510  145.1120  163.6228 C.3     1  UNL1        0.1465
@<TRIPOS>BOND
     1    21    22    1
     2    22    23    2
     3    22    24    2
     4    22    12    1
     5    12    13   ar
     6    13    14   ar
     7    14    11    1
     8    11     1    1
     9     1     2   ar
    10     2     3   ar
    11     3     4   ar
    12     4     5   ar
    13     5     6    1
    14     5     7   ar
    15     7     8   ar
    16     8     9   ar
    17     9    10   ar
    18    10    25    1
    19    25    26    1
    20    26    27    1
    21    27    28    1
    22    28    29    1
    23    14    15   ar
    24    15    16   ar
    25    16    17   ar
    26    17    18   ar
    27    18    19   ar
    28    19    20   ar
    29    20    12   ar
    30    10     1   ar
    31    29    26    1
    32    20    15   ar
    33     9     3   ar
@<TRIPOS>MOLECULE
*****
 29 33 0 0 0
SMALL
GASTEIGER

@<TRIPOS>ATOM
      1 C         139.4212  141.6091  165.4550 C.ar    1  UNL1        0.1452
      2 N         140.2352  142.6833  166.1132 N.ar    1  UNL1       -0.2289
      3 C         141.1437  142.0301  167.1121 C.ar    1  UNL1        0.0992
      4 C         142.1683  142.5901  168.0537 C.ar    1  UNL1        0.0320
      5 C         142.9403  141.6721  168.9544 C.ar    1  UNL1        0.0593
      6 CL        143.9650  142.2322  169.8959 Cl      1  UNL1       -0.0822
      7 C         142.6878  140.1941  168.9135 C.ar    1  UNL1        0.0130
      8 C         141.6632  139.6341  167.9720 C.ar    1  UNL1        0.0196
      9 C         140.8912  140.5521  167.0713 C.ar    1  UNL1        0.0787
     10 N         139.8266  140.2919  166.0471 N.ar    1  UNL1       -0.3131
     11 C         138.3839  141.8158  164.3913 C.3     1  UNL1        0.1908
     12 C         139.3235  141.7326  160.6263 C.ar    1  UNL1        0.2069
     13 N         138.8468  141.0482  161.8730 N.ar    1  UNL1       -0.1501
     14 N         138.8034  142.0669  162.9732 N.ar    1  UNL1       -0.2404
     15 C         139.2533  143.3808  162.4064 C.ar    1  UNL1        0.1003
     16 C         139.4117  144.7387  163.0237 C.ar    1  UNL1        0.1176
     17 N         139.8916  145.8899  162.1905 N.ar    1  UNL1       -0.2408
     18 C         140.2130  145.6833  160.7400 C.ar    1  UNL1        0.0991
     19 C         140.0546  144.3255  160.1227 C.ar    1  UNL1        0.0251
     20 C         139.5747  143.1742  160.9559 C.ar    1  UNL1        0.0572
     21 C         139.7070  140.4444  157.9442 C.3     1  UNL1        0.1835
     22 S         139.5152  141.0885  159.2852 S.O2    1  UNL1        0.0285
     23 O         140.8758  140.6176  159.7060 O.2     1  UNL1       -0.1671
     24 O         138.1546  141.5594  158.8645 O.2     1  UNL1       -0.1671
     25 C         139.2658  138.9501  165.6795 C.3     1  UNL1        0.1122
     26 C         139.9155  138.1358  164.6001 C.3     1  UNL1        0.0818
     27 C         141.2751  137.5356  164.3973 C.3     1  UNL1        0.1465
     28 O         140.8342  136.9843  163.0738 O.3     1  UNL1       -0.3535
     29 C         139.4745  137.5845  163.2766 C.3     1  UNL1        0.1465
@<TRIPOS>BOND
     1    21    22    1
     2    22    23    2
     3    22    24    2
     4    22    12    1
     5    12    13   ar
     6    13    14   ar
     7    14    11    1
     8    11     1    1
     9     1     2   ar
    10     2     3   ar
    11     3     4   ar
    12     4     5   ar
    13     5     6    1
    14     5     7   ar
    15     7     8   ar
    16     8     9   ar
    17     9    10   ar
    18    10    25    1
    19    25    26    1
    20    26    27    1
    21    27    28    1
    22    28    29    1
    23    14    15   ar
    24    15    16   ar
    25    16    17   ar
    26    17    18   ar
    27    18    19   ar
    28    19    20   ar
    29    20    12   ar
    30    10     1   ar
    31    29    26    1
    32    20    15   ar
    33     9     3   ar
@<TRIPOS>MOLECULE
*****
 29 33 0 0 0
SMALL
GASTEIGER

@<TRIPOS>ATOM
      1 C         142.8696  141.3011  164.9890 C.ar    1  UNL1        0.1452
      2 N         142.5627  142.3774  165.9876 N.ar    1  UNL1       -0.2289
      3 C         142.4500  141.7371  167.3394 C.ar    1  UNL1        0.0992
      4 C         142.1620  142.3043  168.6978 C.ar    1  UNL1        0.0320
      5 C         142.1113  141.3994  169.8931 C.ar    1  UNL1        0.0593
      6 CL        141.8232  141.9667  171.2515 Cl      1  UNL1       -0.0822
      7 C         142.3486  139.9273  169.7299 C.ar    1  UNL1        0.0130
      8 C         142.6366  139.3602  168.3715 C.ar    1  UNL1        0.0196
      9 C         142.6873  140.2651  167.1763 C.ar    1  UNL1        0.0787
     10 N         142.9466  139.9956  165.7236 N.ar    1  UNL1       -0.3131
     11 C         143.0652  141.4961  163.5146 C.3     1  UNL1        0.1908
     12 C         140.8113  143.4998  161.0711 C.ar    1  UNL1        0.2069
     13 N         142.1601  143.1737  161.6407 N.ar    1  UNL1       -0.1501
     14 N         141.9772  142.1169  162.6894 N.ar    1  UNL1       -0.2404
     15 C         140.5154  141.7899  162.7680 C.ar    1  UNL1        0.1003
     16 C         139.7474  140.8243  163.6210 C.ar    1  UNL1        0.1176
     17 N         138.2588  140.7133  163.4739 N.ar    1  UNL1       -0.2408
     18 C         137.5382  141.5680  162.4738 C.ar    1  UNL1        0.0991
     19 C         138.3062  142.5336  161.6208 C.ar    1  UNL1        0.0251
     20 C         139.7948  142.6445  161.7678 C.ar    1  UNL1        0.0572
     21 C         140.2458  145.5097  158.9169 C.3     1  UNL1        0.1835
     22 S         140.5286  144.5047  159.9940 S.O2    1  UNL1        0.0285
     23 O         140.7672  143.4537  158.9508 O.2     1  UNL1       -0.1671
     24 O         140.2899  145.5557  161.0372 O.2     1  UNL1       -0.1671
     25 C         143.2328  138.6558  165.1128 C.3     1  UNL1        0.1122
     26 C         142.2166  138.0054  164.2214 C.3     1  UNL1        0.0818
     27 C         142.0055  137.9211  162.7388 C.3     1  UNL1        0.1465
     28 O         140.7796  137.0857  162.9609 O.3     1  UNL1       -0.3535
     29 C         140.9907  137.1700  164.4436 C.3     1  UNL1        0.1465
@<TRIPOS>BOND
     1    21    22    1
     2    22    23    2
     3    22    24    2
     4    22    12    1
     5    12    13   ar
     6    13    14   ar
     7    14    11    1
     8    11     1    1
     9     1     2   ar
    10     2     3   ar
    11     3     4   ar
    12     4     5   ar
    13     5     6    1
    14     5     7   ar
    15     7     8   ar
    16     8     9   ar
    17     9    10   ar
    18    10    25    1
    19    25    26    1
    20    26    27    1
    21    27    28    1
    22    28    29    1
    23    14    15   ar
    24    15    16   ar
    25    16    17   ar
    26    17    18   ar
    27    18    19   ar
    28    19    20   ar
    29    20    12   ar
    30    10     1   ar
    31    29    26    1
    32    20    15   ar
    33     9     3   ar
