@<TRIPOS>MOLECULE
*****
 21 23 0 0 0
SMALL
GASTEIGER

@<TRIPOS>ATOM
      1 C         143.0507  143.4153  164.7153 C.ar    1  UNL1        0.0128
      2 C         142.7834  142.5620  165.9196 C.ar    1  UNL1        0.0771
      3 N         141.3133  142.6201  166.2118 N.ar    1  UNL1       -0.3052
      4 C         140.6720  143.5094  165.1881 C.ar    1  UNL1        0.0638
      5 C         139.2491  143.9351  164.9787 C.ar    1  UNL1        0.0184
      6 C         138.8999  144.8523  163.8444 C.ar    1  UNL1        0.0129
      7 C         139.9737  145.3438  162.9194 C.ar    1  UNL1        0.0578
      8 CL        139.6244  146.2611  161.7851 Cl      1  UNL1       -0.0822
      9 C         141.3966  144.9181  163.1289 C.ar    1  UNL1        0.0126
     10 C         141.7458  144.0009  164.2632 C.ar    1  UNL1        0.0157
     11 C         140.6083  141.9131  167.3312 C.ar    1  UNL1        0.0642
     12 C         140.5560  142.5342  168.6956 C.ar    1  UNL1        0.0198
     13 C         139.8509  141.8272  169.8150 C.ar    1  UNL1        0.0311
     14 C         139.1981  140.4991  169.5700 C.ar    1  UNL1        0.1402
     15 F         138.4931  139.7921  170.6894 F       1  UNL1       -0.2042
     16 C         139.2504  139.8781  168.2057 C.ar    1  UNL1        0.0311
     17 C         139.9555  140.5851  167.0863 C.ar    1  UNL1        0.0198
     18 C         144.3881  143.6432  164.0754 C.3     1  UNL1        0.1008
     19 C         144.6270  142.8217  161.6221 C.3     1  UNL1        0.0899
     20 N         144.9230  142.6536  163.0830 N.3     1  UNL1       -0.2665
     21 C         145.7540  141.4960  163.5515 C.3     1  UNL1        0.0899
@<TRIPOS>BOND
     1    19    20    1
     2    20    21    1
     3    20    18    1
     4    18     1    1
     5     1     2   ar
     6     2     3   ar
     7     3    11    1
     8    11    12   ar
     9    12    13   ar
    10    13    14   ar
    11    14    15    1
    12    14    16   ar
    13    16    17   ar
    14     3     4   ar
    15     4     5   ar
    16     5     6   ar
    17     6     7   ar
    18     7     8    1
    19     7     9   ar
    20     9    10   ar
    21    10     1   ar
    22    17    11   ar
    23    10     4   ar
@<TRIPOS>MOLECULE
*****
 21 23 0 0 0
SMALL
GASTEIGER

@<TRIPOS>ATOM
      1 C         139.4278  139.6225  165.5342 C.ar    1  UNL1        0.0128
      2 C         140.2124  139.8234  166.7968 C.ar    1  UNL1        0.0771
      3 N         140.5105  141.2875  166.9293 N.ar    1  UNL1       -0.3052
      4 C         139.9102  141.9915  165.7486 C.ar    1  UNL1        0.0638
      5 C         139.8865  143.4365  165.3472 C.ar    1  UNL1        0.0184
      6 C         139.1936  143.8526  164.0836 C.ar    1  UNL1        0.0129
      7 C         138.5245  142.8236  163.2214 C.ar    1  UNL1        0.0578
      8 CL        137.8316  143.2397  161.9577 Cl      1  UNL1       -0.0822
      9 C         138.5482  141.3785  163.6228 C.ar    1  UNL1        0.0126
     10 C         139.2411  140.9625  164.8864 C.ar    1  UNL1        0.0157
     11 C         141.2748  141.9341  168.0463 C.ar    1  UNL1        0.0642
     12 C         142.7300  141.6242  168.2373 C.ar    1  UNL1        0.0198
     13 C         143.4943  142.2708  169.3543 C.ar    1  UNL1        0.0311
     14 C         142.8034  143.2273  170.2805 C.ar    1  UNL1        0.1402
     15 F         143.5676  143.8739  171.3975 F       1  UNL1       -0.2042
     16 C         141.3482  143.5372  170.0895 C.ar    1  UNL1        0.0311
     17 C         140.5840  142.8906  168.9725 C.ar    1  UNL1        0.0198
     18 C         138.9193  138.3118  165.0113 C.3     1  UNL1        0.1008
     19 C         140.8372  137.1955  163.6601 C.3     1  UNL1        0.0899
     20 N         139.4499  137.7628  163.7201 N.3     1  UNL1       -0.2665
     21 C         138.5932  137.7810  162.4889 C.3     1  UNL1        0.0899
@<TRIPOS>BOND
     1    19    20    1
     2    20    21    1
     3    20    18    1
     4    18     1    1
     5     1     2   ar
     6     2     3   ar
     7     3    11    1
     8    11    12   ar
     9    12    13   ar
    10    13    14   ar
    11    14    15    1
    12    14    16   ar
    13    16    17   ar
    14     3     4   ar
    15     4     5   ar
    16     5     6   ar
    17     6     7   ar
    18     7     8    1
    19     7     9   ar
    20     9    10   ar
    21    10     1   ar
    22    17    11   ar
    23    10     4   ar
@<TRIPOS>MOLECULE
*****
 21 23 0 0 0
SMALL
GASTEIGER

@<TRIPOS>ATOM
      1 C         138.8258  142.7028  164.1694 C.ar    1  UNL1        0.0128
      2 C         139.4972  143.3810  165.3267 C.ar    1  UNL1        0.0771
      3 N         140.1229  142.3220  166.1851 N.ar    1  UNL1       -0.3052
      4 C         139.8382  140.9892  165.5584 C.ar    1  UNL1        0.0638
      5 C         140.2054  139.5918  165.9611 C.ar    1  UNL1        0.0184
      6 C         139.7709  138.4297  165.1182 C.ar    1  UNL1        0.0129
      7 C         138.9692  138.6651  163.8724 C.ar    1  UNL1        0.0578
      8 CL        138.5346  137.5029  163.0294 Cl      1  UNL1       -0.0822
      9 C         138.6020  140.0625  163.4696 C.ar    1  UNL1        0.0126
     10 C         139.0365  141.2246  164.3126 C.ar    1  UNL1        0.0157
     11 C         140.8974  142.5548  167.4484 C.ar    1  UNL1        0.0642
     12 C         142.3295  142.1181  167.5415 C.ar    1  UNL1        0.0198
     13 C         143.1040  142.3508  168.8048 C.ar    1  UNL1        0.0311
     14 C         142.4465  143.0203  169.9750 C.ar    1  UNL1        0.1402
     15 F         143.2210  143.2531  171.2384 F       1  UNL1       -0.2042
     16 C         141.0145  143.4570  169.8819 C.ar    1  UNL1        0.0311
     17 C         140.2400  143.2242  168.6186 C.ar    1  UNL1        0.0198
     18 C         138.0753  143.3833  163.0632 C.3     1  UNL1        0.1008
     19 C         138.3687  142.5506  160.6197 C.3     1  UNL1        0.0899
     20 N         138.7033  143.5266  161.7084 N.3     1  UNL1       -0.2665
     21 C         139.6657  144.6460  161.4425 C.3     1  UNL1        0.0899
@<TRIPOS>BOND
     1    19    20    1
     2    20    21    1
     3    20    18    1
     4    18     1    1
     5     1     2   ar
     6     2     3   ar
     7     3    11    1
     8    11    12   ar
     9    12    13   ar
    10    13    14   ar
    11    14    15    1
    12    14    16   ar
    13    16    17   ar
    14     3     4   ar
    15     4     5   ar
    16     5     6   ar
    17     6     7   ar
    18     7     8    1
    19     7     9   ar
    20     9    10   ar
    21    10     1   ar
    22    17    11   ar
    23    10     4   ar
@<TRIPOS>MOLECULE
*****
 21 23 0 0 0
SMALL
GASTEIGER

@<TRIPOS>ATOM
      1 C         140.3676  141.6634  168.0571 C.ar    1  UNL1        0.0128
      2 C         140.6502  142.8793  167.2254 C.ar    1  UNL1        0.0771
      3 N         140.0125  142.6805  165.8823 N.ar    1  UNL1       -0.3052
      4 C         139.3357  141.3419  165.8840 C.ar    1  UNL1        0.0638
      5 C         138.5480  140.6141  164.8353 C.ar    1  UNL1        0.0184
      6 C         137.9798  139.2578  165.1307 C.ar    1  UNL1        0.0129
      7 C         138.1993  138.6291  166.4749 C.ar    1  UNL1        0.0578
      8 CL        137.6310  137.2727  166.7702 Cl      1  UNL1       -0.0822
      9 C         138.9870  139.3569  167.5236 C.ar    1  UNL1        0.0126
     10 C         139.5552  140.7133  167.2281 C.ar    1  UNL1        0.0157
     11 C         140.0456  143.6502  164.7384 C.ar    1  UNL1        0.0642
     12 C         138.7696  144.0566  164.0624 C.ar    1  UNL1        0.0198
     13 C         138.8028  145.0263  162.9185 C.ar    1  UNL1        0.0311
     14 C         140.1118  145.5896  162.4504 C.ar    1  UNL1        0.1402
     15 F         140.1450  146.5593  161.3065 F       1  UNL1       -0.2042
     16 C         141.3877  145.1832  163.1263 C.ar    1  UNL1        0.0311
     17 C         141.3546  144.2135  164.2703 C.ar    1  UNL1        0.0198
     18 C         140.8183  141.4374  169.4698 C.3     1  UNL1        0.1008
     19 C         142.2688  139.3277  169.9120 C.3     1  UNL1        0.0899
     20 N         142.1555  140.8135  169.7398 N.3     1  UNL1       -0.2665
     21 C         143.3792  141.6754  169.8375 C.3     1  UNL1        0.0899
@<TRIPOS>BOND
     1    19    20    1
     2    20    21    1
     3    20    18    1
     4    18     1    1
     5     1     2   ar
     6     2     3   ar
     7     3    11    1
     8    11    12   ar
     9    12    13   ar
    10    13    14   ar
    11    14    15    1
    12    14    16   ar
    13    16    17   ar
    14     3     4   ar
    15     4     5   ar
    16     5     6   ar
    17     6     7   ar
    18     7     8    1
    19     7     9   ar
    20     9    10   ar
    21    10     1   ar
    22    17    11   ar
    23    10     4   ar
@<TRIPOS>MOLECULE
*****
 21 23 0 0 0
SMALL
GASTEIGER

@<TRIPOS>ATOM
      1 C         142.5166  142.6638  164.2536 C.ar    1  UNL1        0.0128
      2 C         142.1192  141.3709  164.9019 C.ar    1  UNL1        0.0771
      3 N         140.6295  141.2353  164.7908 N.ar    1  UNL1       -0.3052
      4 C         140.1062  142.4445  164.0738 C.ar    1  UNL1        0.0638
      5 C         138.7183  142.8557  163.6804 C.ar    1  UNL1        0.0184
      6 C         138.4968  144.1497  162.9550 C.ar    1  UNL1        0.0129
      7 C         139.6631  145.0326  162.6229 C.ar    1  UNL1        0.0578
      8 CL        139.4416  146.3267  161.8974 Cl      1  UNL1       -0.0822
      9 C         141.0510  144.6214  163.0163 C.ar    1  UNL1        0.0126
     10 C         141.2725  143.3274  163.7418 C.ar    1  UNL1        0.0157
     11 C         139.8073  140.0915  165.3062 C.ar    1  UNL1        0.0642
     12 C         139.7064  138.8227  164.5122 C.ar    1  UNL1        0.0198
     13 C         138.8843  137.6788  165.0276 C.ar    1  UNL1        0.0311
     14 C         138.1631  137.8036  166.3370 C.ar    1  UNL1        0.1402
     15 F         137.3410  136.6597  166.8524 F       1  UNL1       -0.2042
     16 C         138.2641  139.0722  167.1309 C.ar    1  UNL1        0.0311
     17 C         139.0862  140.2161  166.6155 C.ar    1  UNL1        0.0198
     18 C         143.9129  143.1993  164.1374 C.3     1  UNL1        0.1008
     19 C         144.7330  143.0301  161.6779 C.3     1  UNL1        0.0899
     20 N         144.8531  142.6275  163.1179 N.3     1  UNL1       -0.2665
     21 C         145.9132  141.6532  163.5383 C.3     1  UNL1        0.0899
@<TRIPOS>BOND
     1    19    20    1
     2    20    21    1
     3    20    18    1
     4    18     1    1
     5     1     2   ar
     6     2     3   ar
     7     3    11    1
     8    11    12   ar
     9    12    13   ar
    10    13    14   ar
    11    14    15    1
    12    14    16   ar
    13    16    17   ar
    14     3     4   ar
    15     4     5   ar
    16     5     6   ar
    17     6     7   ar
    18     7     8    1
    19     7     9   ar
    20     9    10   ar
    21    10     1   ar
    22    17    11   ar
    23    10     4   ar
@<TRIPOS>MOLECULE
*****
 21 23 0 0 0
SMALL
GASTEIGER

@<TRIPOS>ATOM
      1 C         142.8779  139.6934  164.9163 C.ar    1  UNL1        0.0128
      2 C         142.7881  140.4131  166.2293 C.ar    1  UNL1        0.0771
      3 N         141.3367  140.5664  166.5755 N.ar    1  UNL1       -0.3052
      4 C         140.5295  139.9415  165.4764 C.ar    1  UNL1        0.0638
      5 C         139.0502  139.7940  165.2769 C.ar    1  UNL1        0.0184
      6 C         138.5234  139.1070  164.0520 C.ar    1  UNL1        0.0129
      7 C         139.4760  138.5675  163.0266 C.ar    1  UNL1        0.0578
      8 CL        138.9492  137.8805  161.8016 Cl      1  UNL1       -0.0822
      9 C         140.9553  138.7150  163.2261 C.ar    1  UNL1        0.0126
     10 C         141.4820  139.4019  164.4510 C.ar    1  UNL1        0.0157
     11 C         140.7886  141.2284  167.8049 C.ar    1  UNL1        0.0642
     12 C         140.0293  140.4214  168.8160 C.ar    1  UNL1        0.0198
     13 C         139.4812  141.0834  170.0454 C.ar    1  UNL1        0.0311
     14 C         139.6924  142.5523  170.2637 C.ar    1  UNL1        0.1402
     15 F         139.1444  143.2143  171.4931 F       1  UNL1       -0.2042
     16 C         140.4517  143.3592  169.2526 C.ar    1  UNL1        0.0311
     17 C         140.9998  142.6972  168.0232 C.ar    1  UNL1        0.0198
     18 C         144.1418  139.3292  164.1952 C.3     1  UNL1        0.1008
     19 C         144.3592  140.1973  161.7560 C.3     1  UNL1        0.0899
     20 N         144.7412  140.2824  163.2041 N.3     1  UNL1       -0.2665
     21 C         145.7225  141.3208  163.6611 C.3     1  UNL1        0.0899
@<TRIPOS>BOND
     1    19    20    1
     2    20    21    1
     3    20    18    1
     4    18     1    1
     5     1     2   ar
     6     2     3   ar
     7     3    11    1
     8    11    12   ar
     9    12    13   ar
    10    13    14   ar
    11    14    15    1
    12    14    16   ar
    13    16    17   ar
    14     3     4   ar
    15     4     5   ar
    16     5     6   ar
    17     6     7   ar
    18     7     8    1
    19     7     9   ar
    20     9    10   ar
    21    10     1   ar
    22    17    11   ar
    23    10     4   ar
@<TRIPOS>MOLECULE
*****
 21 23 0 0 0
SMALL
GASTEIGER

@<TRIPOS>ATOM
      1 C         144.0475  141.4599  164.4099 C.ar    1  UNL1        0.0128
      2 C         143.5442  141.6350  165.8120 C.ar    1  UNL1        0.0771
      3 N         142.6116  140.4998  166.1148 N.ar    1  UNL1       -0.3052
      4 C         142.5386  139.6232  164.8999 C.ar    1  UNL1        0.0638
      5 C         141.7788  138.3612  164.6170 C.ar    1  UNL1        0.0184
      6 C         141.9063  137.6927  163.2803 C.ar    1  UNL1        0.0129
      7 C         142.7938  138.2861  162.2265 C.ar    1  UNL1        0.0578
      8 CL        142.9213  137.6175  160.8898 Cl      1  UNL1       -0.0822
      9 C         143.5536  139.5480  162.5095 C.ar    1  UNL1        0.0126
     10 C         143.4261  140.2165  163.8462 C.ar    1  UNL1        0.0157
     11 C         141.8805  140.2799  167.4060 C.ar    1  UNL1        0.0642
     12 C         140.4296  140.6444  167.5178 C.ar    1  UNL1        0.0198
     13 C         139.6984  140.4245  168.8089 C.ar    1  UNL1        0.0311
     14 C         140.4180  139.8401  169.9882 C.ar    1  UNL1        0.1402
     15 F         139.6868  139.6201  171.2793 F       1  UNL1       -0.2042
     16 C         141.8687  139.4756  169.8764 C.ar    1  UNL1        0.0311
     17 C         142.5999  139.6955  168.5852 C.ar    1  UNL1        0.0198
     18 C         145.0043  142.3687  163.6967 C.3     1  UNL1        0.1008
     19 C         144.5575  142.8582  161.1845 C.3     1  UNL1        0.0899
     20 N         144.5056  143.2874  162.6208 N.3     1  UNL1       -0.2665
     21 C         143.9550  144.6353  162.9814 C.3     1  UNL1        0.0899
@<TRIPOS>BOND
     1    19    20    1
     2    20    21    1
     3    20    18    1
     4    18     1    1
     5     1     2   ar
     6     2     3   ar
     7     3    11    1
     8    11    12   ar
     9    12    13   ar
    10    13    14   ar
    11    14    15    1
    12    14    16   ar
    13    16    17   ar
    14     3     4   ar
    15     4     5   ar
    16     5     6   ar
    17     6     7   ar
    18     7     8    1
    19     7     9   ar
    20     9    10   ar
    21    10     1   ar
    22    17    11   ar
    23    10     4   ar
@<TRIPOS>MOLECULE
*****
 21 23 0 0 0
SMALL
GASTEIGER

@<TRIPOS>ATOM
      1 C         141.7293  138.8889  164.9534 C.ar    1  UNL1        0.0128
      2 C         140.8846  139.2080  166.1512 C.ar    1  UNL1        0.0771
      3 N         141.3465  140.5223  166.7072 N.ar    1  UNL1       -0.3052
      4 C         142.4767  141.0155  165.8532 C.ar    1  UNL1        0.0638
      5 C         143.3210  142.2533  165.9225 C.ar    1  UNL1        0.0184
      6 C         144.4019  142.4817  164.9079 C.ar    1  UNL1        0.0129
      7 C         144.6385  141.4722  163.8240 C.ar    1  UNL1        0.0578
      8 CL        145.7194  141.7006  162.8093 Cl      1  UNL1       -0.0822
      9 C         143.7942  140.2343  163.7547 C.ar    1  UNL1        0.0126
     10 C         142.7133  140.0060  164.7693 C.ar    1  UNL1        0.0157
     11 C         140.7780  141.2208  167.9068 C.ar    1  UNL1        0.0642
     12 C         140.0009  140.4445  168.9284 C.ar    1  UNL1        0.0198
     13 C         139.4324  141.1431  170.1280 C.ar    1  UNL1        0.0311
     14 C         139.6410  142.6178  170.3060 C.ar    1  UNL1        0.1402
     15 F         139.0725  143.3163  171.5055 F       1  UNL1       -0.2042
     16 C         140.4181  143.3939  169.2844 C.ar    1  UNL1        0.0311
     17 C         140.9866  142.6954  168.0848 C.ar    1  UNL1        0.0198
     18 C         141.6109  137.6672  164.0912 C.3     1  UNL1        0.1008
     19 C         139.4311  137.6909  162.6776 C.3     1  UNL1        0.0899
     20 N         140.9276  137.7531  162.7585 N.3     1  UNL1       -0.2665
     21 C         141.7409  137.9013  161.5069 C.3     1  UNL1        0.0899
@<TRIPOS>BOND
     1    19    20    1
     2    20    21    1
     3    20    18    1
     4    18     1    1
     5     1     2   ar
     6     2     3   ar
     7     3    11    1
     8    11    12   ar
     9    12    13   ar
    10    13    14   ar
    11    14    15    1
    12    14    16   ar
    13    16    17   ar
    14     3     4   ar
    15     4     5   ar
    16     5     6   ar
    17     6     7   ar
    18     7     8    1
    19     7     9   ar
    20     9    10   ar
    21    10     1   ar
    22    17    11   ar
    23    10     4   ar
@<TRIPOS>MOLECULE
*****
 21 23 0 0 0
SMALL
GASTEIGER

@<TRIPOS>ATOM
      1 C         138.5674  141.7662  163.9822 C.ar    1  UNL1        0.0128
      2 C         139.0514  141.4934  165.3756 C.ar    1  UNL1        0.0771
      3 N         140.1261  142.4895  165.6963 N.ar    1  UNL1       -0.3052
      4 C         140.3064  143.3779  164.5012 C.ar    1  UNL1        0.0638
      5 C         141.2232  144.5361  164.2407 C.ar    1  UNL1        0.0184
      6 C         141.1768  145.2473  162.9209 C.ar    1  UNL1        0.0129
      7 C         140.2135  144.8003  161.8615 C.ar    1  UNL1        0.0578
      8 CL        140.1670  145.5116  160.5417 Cl      1  UNL1       -0.0822
      9 C         139.2966  143.6421  162.1220 C.ar    1  UNL1        0.0126
     10 C         139.3430  142.9309  163.4418 C.ar    1  UNL1        0.0157
     11 C         140.8870  142.5810  166.9857 C.ar    1  UNL1        0.0642
     12 C         142.3243  142.1551  167.0403 C.ar    1  UNL1        0.0198
     13 C         143.0852  142.2467  168.3298 C.ar    1  UNL1        0.0311
     14 C         142.4088  142.7642  169.5646 C.ar    1  UNL1        0.1402
     15 F         143.1697  142.8558  170.8540 F       1  UNL1       -0.2042
     16 C         140.9716  143.1901  169.5100 C.ar    1  UNL1        0.0311
     17 C         140.2107  143.0985  168.2205 C.ar    1  UNL1        0.0198
     18 C         137.4960  141.0076  163.2566 C.3     1  UNL1        0.1008
     19 C         138.4780  138.6328  162.8744 C.3     1  UNL1        0.0899
     20 N         137.8665  139.8890  162.3284 N.3     1  UNL1       -0.2665
     21 C         137.6256  140.0266  160.8543 C.3     1  UNL1        0.0899
@<TRIPOS>BOND
     1    19    20    1
     2    20    21    1
     3    20    18    1
     4    18     1    1
     5     1     2   ar
     6     2     3   ar
     7     3    11    1
     8    11    12   ar
     9    12    13   ar
    10    13    14   ar
    11    14    15    1
    12    14    16   ar
    13    16    17   ar
    14     3     4   ar
    15     4     5   ar
    16     5     6   ar
    17     6     7   ar
    18     7     8    1
    19     7     9   ar
    20     9    10   ar
    21    10     1   ar
    22    17    11   ar
    23    10     4   ar
