@<TRIPOS>MOLECULE
*****
 27 30 0 0 0
SMALL
GASTEIGER

@<TRIPOS>ATOM
      1 O         137.9956  139.9840  170.2320 O.2     1  UNL1       -0.2699
      2 C         139.1324  140.2739  169.2973 C.2     1  UNL1        0.2494
      3 N         139.1505  139.6646  167.9267 N.am    1  UNL1       -0.2686
      4 C         138.0318  138.7654  167.4909 C.3     1  UNL1        0.1005
      5 C         138.0500  138.1561  166.1203 C.3     1  UNL1        0.0703
      6 C         139.1868  138.4461  165.1856 C.ar    1  UNL1        0.0955
      7 N         139.4752  137.9928  163.7851 N.ar    1  UNL1       -0.2136
      8 C         140.7721  138.6120  163.3554 C.ar    1  UNL1        0.2500
      9 O         141.2852  139.4479  164.4903 O.2     1  UNL1       -0.4379
     10 C         140.3054  139.3453  165.6215 C.ar    1  UNL1        0.1580
     11 C         140.2872  139.9546  166.9920 C.3     1  UNL1        0.1598
     12 C         140.2510  141.1732  169.7331 C.ar    1  UNL1        0.0537
     13 C         140.1220  142.6596  169.5786 C.ar    1  UNL1        0.0068
     14 C         141.2407  143.5589  170.0145 C.ar    1  UNL1        0.0298
     15 C         142.4883  142.9717  170.6049 C.ar    1  UNL1        0.1401
     16 F         143.6069  143.8709  171.0407 F       1  UNL1       -0.2042
     17 C         142.6173  141.4853  170.7594 C.ar    1  UNL1        0.0298
     18 C         141.4987  140.5860  170.3236 C.ar    1  UNL1        0.0068
     19 C         141.4389  138.4276  162.0244 C.3     1  UNL1        0.2895
     20 O         142.9308  138.2931  161.9452 O.3     1  UNL1       -0.4654
     21 C         143.8098  139.4371  162.3556 C.ar    1  UNL1        0.1415
     22 C         144.5303  139.3952  163.6706 C.ar    1  UNL1        0.0371
     23 C         145.4093  140.5392  164.0810 C.ar    1  UNL1        0.0054
     24 C         145.5679  141.7252  163.1764 C.ar    1  UNL1        0.0298
     25 C         144.8475  141.7672  161.8614 C.ar    1  UNL1        0.1432
     26 F         145.0060  142.9531  160.9568 F       1  UNL1       -0.2041
     27 C         143.9684  140.6231  161.4510 C.ar    1  UNL1        0.0665
@<TRIPOS>BOND
     1     1     2    2
     2     2    12    1
     3    12    13   ar
     4    13    14   ar
     5    14    15   ar
     6    15    16    1
     7    15    17   ar
     8    17    18   ar
     9     2     3   am
    10     3     4    1
    11     4     5    1
    12     5     6    1
    13     6     7   ar
    14     7     8   ar
    15     8    19    1
    16    19    20    1
    17    20    21    1
    18    21    22   ar
    19    22    23   ar
    20    23    24   ar
    21    24    25   ar
    22    25    26    1
    23    25    27   ar
    24     8     9   ar
    25     9    10   ar
    26    10    11    1
    27    18    12   ar
    28    11     3    1
    29    10     6   ar
    30    27    21   ar
@<TRIPOS>MOLECULE
*****
 27 30 0 0 0
SMALL
GASTEIGER

@<TRIPOS>ATOM
      1 O         138.3675  139.7612  170.2285 O.2     1  UNL1       -0.2699
      2 C         139.3488  140.3005  169.2304 C.2     1  UNL1        0.2494
      3 N         139.2430  139.9073  167.7866 N.am    1  UNL1       -0.2686
      4 C         138.1558  138.9748  167.3411 C.3     1  UNL1        0.1005
      5 C         138.0500  138.5816  165.8975 C.3     1  UNL1        0.0703
      6 C         139.0313  139.1209  164.8994 C.ar    1  UNL1        0.0955
      7 N         139.1760  138.9128  163.4209 N.ar    1  UNL1       -0.2136
      8 C         140.3526  139.7168  162.9527 C.ar    1  UNL1        0.2500
      9 O         140.9351  140.4217  164.1418 O.2     1  UNL1       -0.4379
     10 C         140.1184  140.0534  165.3449 C.ar    1  UNL1        0.1580
     11 C         140.2243  140.4466  166.7885 C.3     1  UNL1        0.1598
     12 C         140.4360  141.2330  169.6759 C.ar    1  UNL1        0.0537
     13 C         141.7829  140.6899  170.0511 C.ar    1  UNL1        0.0068
     14 C         142.8701  141.6225  170.4966 C.ar    1  UNL1        0.0298
     15 C         142.6103  143.0981  170.5670 C.ar    1  UNL1        0.1401
     16 F         143.6974  144.0306  171.0125 F       1  UNL1       -0.2042
     17 C         141.2633  143.6412  170.1918 C.ar    1  UNL1        0.0298
     18 C         140.1762  142.7087  169.7462 C.ar    1  UNL1        0.0068
     19 C         140.8581  139.8012  161.5429 C.3     1  UNL1        0.2895
     20 O         142.2882  139.4672  161.2377 O.3     1  UNL1       -0.4654
     21 C         143.3850  139.9934  162.1152 C.ar    1  UNL1        0.1415
     22 C         143.9196  141.3781  161.8988 C.ar    1  UNL1        0.0371
     23 C         145.0164  141.9043  162.7763 C.ar    1  UNL1        0.0054
     24 C         145.5787  141.0458  163.8703 C.ar    1  UNL1        0.0298
     25 C         145.0442  139.6611  164.0868 C.ar    1  UNL1        0.1432
     26 F         145.6064  138.8026  165.1807 F       1  UNL1       -0.2041
     27 C         143.9473  139.1349  163.2092 C.ar    1  UNL1        0.0665
@<TRIPOS>BOND
     1     1     2    2
     2     2    12    1
     3    12    13   ar
     4    13    14   ar
     5    14    15   ar
     6    15    16    1
     7    15    17   ar
     8    17    18   ar
     9     2     3   am
    10     3     4    1
    11     4     5    1
    12     5     6    1
    13     6     7   ar
    14     7     8   ar
    15     8    19    1
    16    19    20    1
    17    20    21    1
    18    21    22   ar
    19    22    23   ar
    20    23    24   ar
    21    24    25   ar
    22    25    26    1
    23    25    27   ar
    24     8     9   ar
    25     9    10   ar
    26    10    11    1
    27    18    12   ar
    28    11     3    1
    29    10     6   ar
    30    27    21   ar
@<TRIPOS>MOLECULE
*****
 27 30 0 0 0
SMALL
GASTEIGER

@<TRIPOS>ATOM
      1 O         138.8001  139.7390  170.5431 O.2     1  UNL1       -0.2699
      2 C         139.6626  140.2530  169.4288 C.2     1  UNL1        0.2494
      3 N         139.3195  139.9301  168.0046 N.am    1  UNL1       -0.2686
      4 C         138.1139  139.0932  167.6949 C.3     1  UNL1        0.1005
      5 C         137.7708  138.7703  166.2709 C.3     1  UNL1        0.0703
      6 C         138.6334  139.2844  165.1565 C.ar    1  UNL1        0.0955
      7 N         138.5460  139.1307  163.6669 N.ar    1  UNL1       -0.2136
      8 C         139.6977  139.8726  163.0561 C.ar    1  UNL1        0.2500
      9 O         140.4968  140.4848  164.1681 O.2     1  UNL1       -0.4379
     10 C         139.8390  140.1213  165.4662 C.ar    1  UNL1        0.1580
     11 C         140.1821  140.4441  166.8903 C.3     1  UNL1        0.1598
     12 C         140.8683  141.0899  169.7385 C.ar    1  UNL1        0.0537
     13 C         140.7282  142.5739  169.9064 C.ar    1  UNL1        0.0068
     14 C         141.9339  143.4108  170.2161 C.ar    1  UNL1        0.0298
     15 C         143.2797  142.7637  170.3579 C.ar    1  UNL1        0.1401
     16 F         144.4853  143.6006  170.6677 F       1  UNL1       -0.2042
     17 C         143.4198  141.2798  170.1900 C.ar    1  UNL1        0.0298
     18 C         142.2142  140.4429  169.8803 C.ar    1  UNL1        0.0068
     19 C         139.9976  139.9830  161.5905 C.3     1  UNL1        0.2895
     20 O         139.8756  141.3078  160.8977 O.3     1  UNL1       -0.4654
     21 C         139.5773  142.5448  161.6918 C.ar    1  UNL1        0.1415
     22 C         138.1612  142.8784  162.0569 C.ar    1  UNL1        0.0371
     23 C         137.8630  144.1154  162.8511 C.ar    1  UNL1        0.0054
     24 C         138.9809  145.0189  163.2803 C.ar    1  UNL1        0.0298
     25 C         140.3970  144.6853  162.9151 C.ar    1  UNL1        0.1432
     26 F         141.5149  145.5887  163.3442 F       1  UNL1       -0.2041
     27 C         140.6952  143.4482  162.1209 C.ar    1  UNL1        0.0665
@<TRIPOS>BOND
     1     1     2    2
     2     2    12    1
     3    12    13   ar
     4    13    14   ar
     5    14    15   ar
     6    15    16    1
     7    15    17   ar
     8    17    18   ar
     9     2     3   am
    10     3     4    1
    11     4     5    1
    12     5     6    1
    13     6     7   ar
    14     7     8   ar
    15     8    19    1
    16    19    20    1
    17    20    21    1
    18    21    22   ar
    19    22    23   ar
    20    23    24   ar
    21    24    25   ar
    22    25    26    1
    23    25    27   ar
    24     8     9   ar
    25     9    10   ar
    26    10    11    1
    27    18    12   ar
    28    11     3    1
    29    10     6   ar
    30    27    21   ar
@<TRIPOS>MOLECULE
*****
 27 30 0 0 0
SMALL
GASTEIGER

@<TRIPOS>ATOM
      1 O         143.3019  138.7130  168.2181 O.2     1  UNL1       -0.2699
      2 C         142.1599  139.5006  167.6475 C.2     1  UNL1        0.2494
      3 N         141.7605  139.3114  166.2141 N.am    1  UNL1       -0.2686
      4 C         142.5031  138.3347  165.3512 C.3     1  UNL1        0.1005
      5 C         142.1036  138.1455  163.9179 C.3     1  UNL1        0.0703
      6 C         140.9616  138.9331  163.3473 C.ar    1  UNL1        0.0955
      7 N         140.3447  138.9598  161.9803 N.ar    1  UNL1       -0.2136
      8 C         139.2209  139.9531  161.9983 C.ar    1  UNL1        0.2500
      9 O         139.1432  140.5402  163.3764 O.2     1  UNL1       -0.4379
     10 C         140.2190  139.9098  164.2102 C.ar    1  UNL1        0.1580
     11 C         140.6185  140.0990  165.6435 C.3     1  UNL1        0.1598
     12 C         141.4174  140.4773  168.5104 C.ar    1  UNL1        0.0537
     13 C         140.1511  140.0595  169.1974 C.ar    1  UNL1        0.0068
     14 C         139.4085  141.0364  170.0603 C.ar    1  UNL1        0.0298
     15 C         139.9322  142.4309  170.2361 C.ar    1  UNL1        0.1401
     16 F         139.1896  143.4076  171.0989 F       1  UNL1       -0.2042
     17 C         141.1985  142.8487  169.5491 C.ar    1  UNL1        0.0298
     18 C         141.9411  141.8719  168.6863 C.ar    1  UNL1        0.0068
     19 C         138.3308  140.2986  160.8413 C.3     1  UNL1        0.2895
     20 O         138.1181  141.7340  160.4612 O.3     1  UNL1       -0.4654
     21 C         138.5406  142.8280  161.3964 C.ar    1  UNL1        0.1415
     22 C         139.7912  143.6090  161.1209 C.ar    1  UNL1        0.0371
     23 C         140.2137  144.7029  162.0561 C.ar    1  UNL1        0.0054
     24 C         139.3855  145.0160  163.2669 C.ar    1  UNL1        0.0298
     25 C         138.1348  144.2351  163.5425 C.ar    1  UNL1        0.1432
     26 F         137.3066  144.5481  164.7533 F       1  UNL1       -0.2041
     27 C         137.7124  143.1410  162.6072 C.ar    1  UNL1        0.0665
@<TRIPOS>BOND
     1     1     2    2
     2     2    12    1
     3    12    13   ar
     4    13    14   ar
     5    14    15   ar
     6    15    16    1
     7    15    17   ar
     8    17    18   ar
     9     2     3   am
    10     3     4    1
    11     4     5    1
    12     5     6    1
    13     6     7   ar
    14     7     8   ar
    15     8    19    1
    16    19    20    1
    17    20    21    1
    18    21    22   ar
    19    22    23   ar
    20    23    24   ar
    21    24    25   ar
    22    25    26    1
    23    25    27   ar
    24     8     9   ar
    25     9    10   ar
    26    10    11    1
    27    18    12   ar
    28    11     3    1
    29    10     6   ar
    30    27    21   ar
@<TRIPOS>MOLECULE
*****
 27 30 0 0 0
SMALL
GASTEIGER

@<TRIPOS>ATOM
      1 O         143.2813  138.4213  168.6320 O.2     1  UNL1       -0.2699
      2 C         142.6560  139.5930  167.9347 C.2     1  UNL1        0.2494
      3 N         142.8779  139.7969  166.4652 N.am    1  UNL1       -0.2686
      4 C         143.7250  138.8293  165.6932 C.3     1  UNL1        0.1005
      5 C         143.9467  139.0333  164.2238 C.3     1  UNL1        0.0703
      6 C         143.3215  140.2049  163.5264 C.ar    1  UNL1        0.0955
      7 N         143.3617  140.6612  162.0980 N.ar    1  UNL1       -0.2136
      8 C         142.5395  141.9109  161.9873 C.ar    1  UNL1        0.2500
      9 O         141.9911  142.2269  163.3473 O.2     1  UNL1       -0.4379
     10 C         142.4744  141.1726  164.2985 C.ar    1  UNL1        0.1580
     11 C         142.2526  140.9686  165.7679 C.3     1  UNL1        0.1598
     12 C         141.8090  140.5606  168.7067 C.ar    1  UNL1        0.0537
     13 C         142.3771  141.8827  169.1302 C.ar    1  UNL1        0.0068
     14 C         141.5299  142.8503  169.9023 C.ar    1  UNL1        0.0298
     15 C         140.1147  142.4959  170.2508 C.ar    1  UNL1        0.1401
     16 F         139.2676  143.4635  171.0229 F       1  UNL1       -0.2042
     17 C         139.5466  141.1738  169.8273 C.ar    1  UNL1        0.0298
     18 C         140.3937  140.2062  169.0553 C.ar    1  UNL1        0.0068
     19 C         142.3065  142.7051  160.7363 C.3     1  UNL1        0.2895
     20 O         140.9071  142.9673  160.2641 O.3     1  UNL1       -0.4654
     21 C         139.8351  143.3178  161.2530 C.ar    1  UNL1        0.1415
     22 C         139.7605  144.7053  161.8180 C.ar    1  UNL1        0.0371
     23 C         138.6886  145.0557  162.8069 C.ar    1  UNL1        0.0054
     24 C         137.6911  144.0187  163.2309 C.ar    1  UNL1        0.0298
     25 C         137.7657  142.6312  162.6659 C.ar    1  UNL1        0.1432
     26 F         136.7683  141.5941  163.0898 F       1  UNL1       -0.2041
     27 C         138.8377  142.2807  161.6769 C.ar    1  UNL1        0.0665
@<TRIPOS>BOND
     1     1     2    2
     2     2    12    1
     3    12    13   ar
     4    13    14   ar
     5    14    15   ar
     6    15    16    1
     7    15    17   ar
     8    17    18   ar
     9     2     3   am
    10     3     4    1
    11     4     5    1
    12     5     6    1
    13     6     7   ar
    14     7     8   ar
    15     8    19    1
    16    19    20    1
    17    20    21    1
    18    21    22   ar
    19    22    23   ar
    20    23    24   ar
    21    24    25   ar
    22    25    26    1
    23    25    27   ar
    24     8     9   ar
    25     9    10   ar
    26    10    11    1
    27    18    12   ar
    28    11     3    1
    29    10     6   ar
    30    27    21   ar
@<TRIPOS>MOLECULE
*****
 27 30 0 0 0
SMALL
GASTEIGER

@<TRIPOS>ATOM
      1 O         138.4404  139.4574  168.2754 O.2     1  UNL1       -0.2699
      2 C         139.7527  139.6606  167.5779 C.2     1  UNL1        0.2494
      3 N         139.9723  139.0844  166.2105 N.am    1  UNL1       -0.2686
      4 C         138.8797  138.3051  165.5406 C.3     1  UNL1        0.1005
      5 C         139.0994  137.7290  164.1732 C.3     1  UNL1        0.0703
      6 C         140.4117  137.9322  163.4757 C.ar    1  UNL1        0.0955
      7 N         140.9152  137.4866  162.1348 N.ar    1  UNL1       -0.2136
      8 C         142.3191  137.9905  161.9760 C.ar    1  UNL1        0.2500
      9 O         142.6832  138.7476  163.2187 O.2     1  UNL1       -0.4379
     10 C         141.5043  138.7115  164.1456 C.ar    1  UNL1        0.1580
     11 C         141.2846  139.2876  165.5130 C.3     1  UNL1        0.1598
     12 C         140.8453  140.4399  168.2478 C.ar    1  UNL1        0.0537
     13 C         140.9315  141.9254  168.0584 C.ar    1  UNL1        0.0068
     14 C         142.0243  142.7047  168.7284 C.ar    1  UNL1        0.0298
     15 C         143.0307  141.9985  169.5876 C.ar    1  UNL1        0.1401
     16 F         144.1233  142.7778  170.2575 F       1  UNL1       -0.2042
     17 C         142.9444  140.5130  169.7770 C.ar    1  UNL1        0.0298
     18 C         141.8518  139.7337  169.1071 C.ar    1  UNL1        0.0068
     19 C         143.2036  137.7752  160.7838 C.3     1  UNL1        0.2895
     20 O         144.1828  138.8355  160.3752 O.3     1  UNL1       -0.4654
     21 C         143.7791  140.2799  160.4025 C.ar    1  UNL1        0.1415
     22 C         142.6953  140.7731  159.4903 C.ar    1  UNL1        0.0371
     23 C         142.2917  142.2175  159.5177 C.ar    1  UNL1        0.0054
     24 C         142.9718  143.1687  160.4573 C.ar    1  UNL1        0.0298
     25 C         144.0555  142.6754  161.3695 C.ar    1  UNL1        0.1432
     26 F         144.7356  143.6266  162.3091 F       1  UNL1       -0.2041
     27 C         144.4592  141.2310  161.3421 C.ar    1  UNL1        0.0665
@<TRIPOS>BOND
     1     1     2    2
     2     2    12    1
     3    12    13   ar
     4    13    14   ar
     5    14    15   ar
     6    15    16    1
     7    15    17   ar
     8    17    18   ar
     9     2     3   am
    10     3     4    1
    11     4     5    1
    12     5     6    1
    13     6     7   ar
    14     7     8   ar
    15     8    19    1
    16    19    20    1
    17    20    21    1
    18    21    22   ar
    19    22    23   ar
    20    23    24   ar
    21    24    25   ar
    22    25    26    1
    23    25    27   ar
    24     8     9   ar
    25     9    10   ar
    26    10    11    1
    27    18    12   ar
    28    11     3    1
    29    10     6   ar
    30    27    21   ar
@<TRIPOS>MOLECULE
*****
 27 30 0 0 0
SMALL
GASTEIGER

@<TRIPOS>ATOM
      1 O         139.4050  139.7642  167.8743 O.2     1  UNL1       -0.2699
      2 C         139.9893  141.0931  167.4967 C.2     1  UNL1        0.2494
      3 N         139.6189  141.7315  166.1908 N.am    1  UNL1       -0.2686
      4 C         138.6643  141.0409  165.2625 C.3     1  UNL1        0.1005
      5 C         138.2940  141.6792  163.9567 C.3     1  UNL1        0.0703
      6 C         138.8782  143.0081  163.5791 C.ar    1  UNL1        0.0955
      7 N         138.7007  143.8749  162.3677 N.ar    1  UNL1       -0.2136
      8 C         139.5456  145.1012  162.5475 C.ar    1  UNL1        0.2500
      9 O         140.2453  144.9923  163.8698 O.2     1  UNL1       -0.4379
     10 C         139.8329  143.6987  164.5073 C.ar    1  UNL1        0.1580
     11 C         140.2032  143.0604  165.8132 C.3     1  UNL1        0.1598
     12 C         140.9439  141.7837  168.4250 C.ar    1  UNL1        0.0537
     13 C         142.3915  141.3908  168.4406 C.ar    1  UNL1        0.0068
     14 C         143.3461  142.0815  169.3690 C.ar    1  UNL1        0.0298
     15 C         142.8532  143.1650  170.2816 C.ar    1  UNL1        0.1401
     16 F         143.8078  143.8556  171.2099 F       1  UNL1       -0.2042
     17 C         141.4056  143.5579  170.2660 C.ar    1  UNL1        0.0298
     18 C         140.4510  142.8673  169.3378 C.ar    1  UNL1        0.0068
     19 C         139.6691  146.2371  161.5755 C.3     1  UNL1        0.2895
     20 O         139.6488  145.9672  160.1001 O.3     1  UNL1       -0.4654
     21 C         140.7832  145.2253  159.4577 C.ar    1  UNL1        0.1415
     22 C         141.1303  145.4833  158.0214 C.ar    1  UNL1        0.0371
     23 C         142.2647  144.7415  157.3790 C.ar    1  UNL1        0.0054
     24 C         143.0521  143.7415  158.1729 C.ar    1  UNL1        0.0298
     25 C         142.7050  143.4836  159.6092 C.ar    1  UNL1        0.1432
     26 F         143.4924  142.4837  160.4031 F       1  UNL1       -0.2041
     27 C         141.5705  144.2255  160.2516 C.ar    1  UNL1        0.0665
@<TRIPOS>BOND
     1     1     2    2
     2     2    12    1
     3    12    13   ar
     4    13    14   ar
     5    14    15   ar
     6    15    16    1
     7    15    17   ar
     8    17    18   ar
     9     2     3   am
    10     3     4    1
    11     4     5    1
    12     5     6    1
    13     6     7   ar
    14     7     8   ar
    15     8    19    1
    16    19    20    1
    17    20    21    1
    18    21    22   ar
    19    22    23   ar
    20    23    24   ar
    21    24    25   ar
    22    25    26    1
    23    25    27   ar
    24     8     9   ar
    25     9    10   ar
    26    10    11    1
    27    18    12   ar
    28    11     3    1
    29    10     6   ar
    30    27    21   ar
@<TRIPOS>MOLECULE
*****
 27 30 0 0 0
SMALL
GASTEIGER

@<TRIPOS>ATOM
      1 O         138.1373  138.6216  166.0623 O.2     1  UNL1       -0.2699
      2 C         139.0860  139.7654  165.8581 C.2     1  UNL1        0.2494
      3 N         138.9483  140.6481  164.6531 N.am    1  UNL1       -0.2686
      4 C         137.8620  140.3869  163.6523 C.3     1  UNL1        0.1005
      5 C         137.7244  141.2696  162.4473 C.3     1  UNL1        0.0703
      6 C         138.6731  142.4134  162.2432 C.ar    1  UNL1        0.0955
      7 N         138.7827  143.4454  161.1601 N.ar    1  UNL1       -0.2136
      8 C         139.9368  144.3444  161.4916 C.ar    1  UNL1        0.2500
      9 O         140.5404  143.8680  162.7795 O.2     1  UNL1       -0.4379
     10 C         139.7594  142.6746  163.2440 C.ar    1  UNL1        0.1580
     11 C         139.8970  141.7919  164.4490 C.3     1  UNL1        0.1598
     12 C         140.1723  140.0266  166.8590 C.ar    1  UNL1        0.0537
     13 C         139.8890  140.8612  168.0727 C.ar    1  UNL1        0.0068
     14 C         140.9754  141.1223  169.0736 C.ar    1  UNL1        0.0298
     15 C         142.3450  140.5489  168.8606 C.ar    1  UNL1        0.1401
     16 F         143.4313  140.8101  169.8614 F       1  UNL1       -0.2042
     17 C         142.6283  139.7144  167.6468 C.ar    1  UNL1        0.0298
     18 C         141.5420  139.4532  166.6460 C.ar    1  UNL1        0.0068
     19 C         140.4051  145.5144  160.6781 C.3     1  UNL1        0.2895
     20 O         139.6742  145.8975  159.4254 O.3     1  UNL1       -0.4654
     21 C         140.3499  145.7656  158.0928 C.ar    1  UNL1        0.1415
     22 C         141.5511  144.8794  157.9453 C.ar    1  UNL1        0.0371
     23 C         142.2268  144.7476  156.6127 C.ar    1  UNL1        0.0054
     24 C         141.7013  145.5020  155.4274 C.ar    1  UNL1        0.0298
     25 C         140.5001  146.3882  155.5748 C.ar    1  UNL1        0.1432
     26 F         139.9746  147.1425  154.3896 F       1  UNL1       -0.2041
     27 C         139.8244  146.5200  156.9076 C.ar    1  UNL1        0.0665
@<TRIPOS>BOND
     1     1     2    2
     2     2    12    1
     3    12    13   ar
     4    13    14   ar
     5    14    15   ar
     6    15    16    1
     7    15    17   ar
     8    17    18   ar
     9     2     3   am
    10     3     4    1
    11     4     5    1
    12     5     6    1
    13     6     7   ar
    14     7     8   ar
    15     8    19    1
    16    19    20    1
    17    20    21    1
    18    21    22   ar
    19    22    23   ar
    20    23    24   ar
    21    24    25   ar
    22    25    26    1
    23    25    27   ar
    24     8     9   ar
    25     9    10   ar
    26    10    11    1
    27    18    12   ar
    28    11     3    1
    29    10     6   ar
    30    27    21   ar
@<TRIPOS>MOLECULE
*****
 27 30 0 0 0
SMALL
GASTEIGER

@<TRIPOS>ATOM
      1 O         139.2364  146.6017  160.7943 O.2     1  UNL1       -0.2699
      2 C         140.2414  145.5520  160.4226 C.2     1  UNL1        0.2494
      3 N         141.1098  144.9371  161.4800 N.am    1  UNL1       -0.2686
      4 C         140.9731  145.3720  162.9090 C.3     1  UNL1        0.1005
      5 C         141.8414  144.7571  163.9663 C.3     1  UNL1        0.0703
      6 C         142.8464  143.7074  163.5946 C.ar    1  UNL1        0.0955
      7 N         143.8328  142.9278  164.4127 N.ar    1  UNL1       -0.2136
      8 C         144.5791  142.0112  163.4892 C.ar    1  UNL1        0.2500
      9 O         144.0539  142.2243  162.1004 O.2     1  UNL1       -0.4379
     10 C         142.9831  143.2726  162.1655 C.ar    1  UNL1        0.1580
     11 C         142.1148  143.8875  161.1082 C.3     1  UNL1        0.1598
     12 C         140.3781  145.1172  158.9935 C.ar    1  UNL1        0.0537
     13 C         141.2642  145.8845  158.0576 C.ar    1  UNL1        0.0068
     14 C         141.4008  145.4496  156.6284 C.ar    1  UNL1        0.0298
     15 C         140.6514  144.2475  156.1354 C.ar    1  UNL1        0.1401
     16 F         140.7881  143.8127  154.7063 F       1  UNL1       -0.2042
     17 C         139.7653  143.4801  157.0714 C.ar    1  UNL1        0.0298
     18 C         139.6287  143.9150  158.5004 C.ar    1  UNL1        0.0068
     19 C         145.6607  141.0501  163.8850 C.3     1  UNL1        0.2895
     20 O         145.3056  139.7551  164.5534 O.3     1  UNL1       -0.4654
     21 C         144.0462  139.0350  164.1721 C.ar    1  UNL1        0.1415
     22 C         143.0352  138.6843  165.2232 C.ar    1  UNL1        0.0371
     23 C         141.7758  137.9642  164.8419 C.ar    1  UNL1        0.0054
     24 C         141.5275  137.5947  163.4094 C.ar    1  UNL1        0.0298
     25 C         142.5386  137.9453  162.3584 C.ar    1  UNL1        0.1432
     26 F         142.2903  137.5758  160.9260 F       1  UNL1       -0.2041
     27 C         143.7980  138.6655  162.7397 C.ar    1  UNL1        0.0665
@<TRIPOS>BOND
     1     1     2    2
     2     2    12    1
     3    12    13   ar
     4    13    14   ar
     5    14    15   ar
     6    15    16    1
     7    15    17   ar
     8    17    18   ar
     9     2     3   am
    10     3     4    1
    11     4     5    1
    12     5     6    1
    13     6     7   ar
    14     7     8   ar
    15     8    19    1
    16    19    20    1
    17    20    21    1
    18    21    22   ar
    19    22    23   ar
    20    23    24   ar
    21    24    25   ar
    22    25    26    1
    23    25    27   ar
    24     8     9   ar
    25     9    10   ar
    26    10    11    1
    27    18    12   ar
    28    11     3    1
    29    10     6   ar
    30    27    21   ar
