@<TRIPOS>MOLECULE
*****
 44 49 0 0 0
SMALL
GASTEIGER

@<TRIPOS>ATOM
      1 C         138.1774  143.0307  162.2976 C.2     1  UNL1        0.2425
      2 O         137.3152  141.8038  162.2631 O.2     1  UNL1       -0.2733
      3 N         139.4137  143.1028  161.4512 N.am    1  UNL1       -0.3018
      4 H         139.9796  143.9080  161.4739 H       1  UNL1        0.1495
      5 C         139.7877  141.9478  160.5702 C.3     1  UNL1        0.1035
      6 C         140.0121  140.4800  160.7838 C.3     1  UNL1        0.0933
      7 N         140.3166  140.3143  159.3244 N.3     1  UNL1       -0.2711
      8 C         140.0922  141.7819  159.1109 C.3     1  UNL1        0.0933
      9 C         140.6907  139.1593  158.4434 C.3     1  UNL1        0.0576
     10 C         142.0910  138.6220  158.4653 C.3     1  UNL1        0.0163
     11 C         142.4650  137.4671  157.5844 C.3     1  UNL1        0.0057
     12 C         141.4387  136.8493  156.6815 C.3     1  UNL1        0.0225
     13 C         140.0384  137.3865  156.6596 C.3     1  UNL1        0.0057
     14 C         139.6644  138.5415  157.5406 C.3     1  UNL1        0.0163
     15 C         141.8128  135.6943  155.8006 C.ar    1  UNL1       -0.0193
     16 C         141.4912  135.7333  154.3359 C.ar    1  UNL1       -0.0010
     17 C         141.8653  134.5783  153.4549 C.ar    1  UNL1        0.0399
     18 C         142.5610  133.3845  154.0385 C.ar    1  UNL1        0.1764
     19 C         142.8826  133.3455  155.5031 C.ar    1  UNL1        0.1761
     20 C         142.5085  134.5004  156.3842 C.ar    1  UNL1        0.0359
     21 O         143.5694  132.0437  155.7924 O.3     1  UNL1       -0.4346
     22 C         143.6722  131.2781  154.5066 C.3     1  UNL1        0.4294
     23 O         143.0490  132.1067  153.4226 O.3     1  UNL1       -0.4346
     24 C         137.8034  144.1857  163.1786 C.3     1  UNL1        0.1747
     25 N         138.4893  144.3746  164.4992 N.pl3   1  UNL1       -0.3093
     26 H         137.9909  144.7421  165.2646 H       1  UNL1        0.1487
     27 N         143.9042  144.9940  162.5705 N.am    1  UNL1       -0.3097
     28 C         143.7076  144.0845  163.7471 C.2     1  UNL1        0.3328
     29 O         144.8856  143.3894  164.3627 O.2     1  UNL1       -0.2479
     30 N         142.3330  143.8701  164.3080 N.ar    1  UNL1       -0.1812
     31 N         141.0666  144.4936  163.8005 N.ar    1  UNL1       -0.1466
     32 C         139.9344  144.0035  164.6537 C.ar    1  UNL1        0.1505
     33 C         140.5011  143.0771  165.6884 C.ar    1  UNL1        0.0509
     34 C         139.8587  142.2979  166.7975 C.ar    1  UNL1        0.0082
     35 C         140.6988  141.4363  167.6930 C.ar    1  UNL1        0.0716
     36 C         142.1812  141.3539  167.4794 C.ar    1  UNL1        0.0054
     37 C         142.8236  142.1331  166.3702 C.ar    1  UNL1        0.0193
     38 C         141.9835  142.9946  165.4747 C.ar    1  UNL1        0.0899
     39 H         144.8063  145.1347  162.2024 H       1  UNL1        0.1467
     40 H         143.1310  145.4503  162.1664 H       1  UNL1        0.1467
     41 C         140.0564  140.6571  168.8022 C.3     1  UNL1        0.4186
     42 F         139.4142  139.8779  169.9114 F       1  UNL1       -0.1659
     43 F         140.8855  141.4024  169.8058 F       1  UNL1       -0.1659
     44 F         139.2274  139.9118  167.7986 F       1  UNL1       -0.1659
@<TRIPOS>BOND
     1    27    28   am
     2    28    29    2
     3    28    30   am
     4    30    31   ar
     5    31    32   ar
     6    32    25    1
     7    25    24    1
     8    24     1    1
     9     1     2    2
    10     1     3   am
    11     3     5    1
    12     5     6    1
    13     6     7    1
    14     9     7    1
    15     9    10    1
    16    10    11    1
    17    11    12    1
    18    12    15    1
    19    15    16   ar
    20    16    17   ar
    21    17    18   ar
    22    18    19   ar
    23    19    20   ar
    24    19    21    1
    25    21    22    1
    26    22    23    1
    27    12    13    1
    28    13    14    1
    29     7     8    1
    30    32    33   ar
    31    33    34   ar
    32    34    35   ar
    33    35    41    1
    34    41    42    1
    35    41    43    1
    36    41    44    1
    37    35    36   ar
    38    36    37   ar
    39    37    38   ar
    40    38    30   ar
    41     8     5    1
    42    38    33   ar
    43    14     9    1
    44    20    15   ar
    45    23    18    1
    46    27    39    1
    47    27    40    1
    48    25    26    1
    49     3     4    1
@<TRIPOS>MOLECULE
*****
 44 49 0 0 0
SMALL
GASTEIGER

@<TRIPOS>ATOM
      1 C         139.9154  139.6858  162.6793 C.2     1  UNL1        0.2425
      2 O         140.4619  138.4337  162.0600 O.2     1  UNL1       -0.2733
      3 N         140.4069  141.0263  162.2196 N.am    1  UNL1       -0.3018
      4 H         140.0481  141.8481  162.6261 H       1  UNL1        0.1495
      5 C         141.4449  141.1147  161.1404 C.3     1  UNL1        0.1035
      6 C         142.8965  140.7519  161.0326 C.3     1  UNL1        0.0933
      7 N         142.9130  141.2398  159.6143 N.3     1  UNL1       -0.2711
      8 C         141.4616  141.6026  159.7221 C.3     1  UNL1        0.0933
      9 C         143.9511  141.3282  158.5351 C.3     1  UNL1        0.0576
     10 C         144.9294  142.4652  158.5268 C.3     1  UNL1        0.0163
     11 C         145.9674  142.5537  157.4477 C.3     1  UNL1        0.0057
     12 C         146.0272  141.5050  156.3767 C.3     1  UNL1        0.0225
     13 C         145.0489  140.3680  156.3850 C.3     1  UNL1        0.0057
     14 C         144.0109  140.2796  157.4642 C.3     1  UNL1        0.0163
     15 C         147.0653  141.5936  155.2976 C.ar    1  UNL1       -0.0193
     16 C         146.6622  141.4749  153.8576 C.ar    1  UNL1       -0.0010
     17 C         147.7002  141.5634  152.7784 C.ar    1  UNL1        0.0399
     18 C         149.1413  141.7706  153.1392 C.ar    1  UNL1        0.1764
     19 C         149.5444  141.8893  154.5791 C.ar    1  UNL1        0.1761
     20 C         148.5064  141.8007  155.6583 C.ar    1  UNL1        0.0359
     21 O         151.0303  142.0883  154.6296 O.3     1  UNL1       -0.4346
     22 C         151.5455  142.0926  153.2208 C.3     1  UNL1        0.4294
     23 O         150.3781  141.8963  152.2997 O.3     1  UNL1       -0.4346
     24 C         138.8773  139.5974  163.7585 C.3     1  UNL1        0.1747
     25 N         139.1355  138.7677  164.9813 N.pl3   1  UNL1       -0.3093
     26 H         139.0639  137.7869  164.9348 H       1  UNL1        0.1487
     27 N         137.7872  139.7021  170.5251 N.am    1  UNL1       -0.3097
     28 C         139.0383  140.3550  170.0164 C.2     1  UNL1        0.3328
     29 O         139.8695  141.2008  170.9347 O.2     1  UNL1       -0.2479
     30 N         139.4579  140.1620  168.5892 N.ar    1  UNL1       -0.1812
     31 N         138.7319  139.3485  167.5591 N.ar    1  UNL1       -0.1466
     32 C         139.5026  139.4324  166.2749 C.ar    1  UNL1        0.1505
     33 C         140.7048  140.2978  166.5114 C.ar    1  UNL1        0.0509
     34 C         141.8210  140.7334  165.6091 C.ar    1  UNL1        0.0082
     35 C         142.9097  141.6199  166.1372 C.ar    1  UNL1        0.0716
     36 C         142.8821  142.0708  167.5675 C.ar    1  UNL1        0.0054
     37 C         141.7658  141.6352  168.4698 C.ar    1  UNL1        0.0193
     38 C         140.6772  140.7487  167.9418 C.ar    1  UNL1        0.0899
     39 H         137.5118  139.8287  171.4618 H       1  UNL1        0.1467
     40 H         137.2416  139.1469  169.9224 H       1  UNL1        0.1467
     41 C         144.0260  142.0555  165.2349 C.3     1  UNL1        0.4186
     42 F         145.1423  142.4911  164.3326 F       1  UNL1       -0.1659
     43 F         144.1389  140.6587  164.7001 F       1  UNL1       -0.1659
     44 F         143.9132  143.4524  165.7696 F       1  UNL1       -0.1659
@<TRIPOS>BOND
     1    27    28   am
     2    28    29    2
     3    28    30   am
     4    30    31   ar
     5    31    32   ar
     6    32    25    1
     7    25    24    1
     8    24     1    1
     9     1     2    2
    10     1     3   am
    11     3     5    1
    12     5     6    1
    13     6     7    1
    14     9     7    1
    15     9    10    1
    16    10    11    1
    17    11    12    1
    18    12    15    1
    19    15    16   ar
    20    16    17   ar
    21    17    18   ar
    22    18    19   ar
    23    19    20   ar
    24    19    21    1
    25    21    22    1
    26    22    23    1
    27    12    13    1
    28    13    14    1
    29     7     8    1
    30    32    33   ar
    31    33    34   ar
    32    34    35   ar
    33    35    41    1
    34    41    42    1
    35    41    43    1
    36    41    44    1
    37    35    36   ar
    38    36    37   ar
    39    37    38   ar
    40    38    30   ar
    41     8     5    1
    42    38    33   ar
    43    14     9    1
    44    20    15   ar
    45    23    18    1
    46    27    39    1
    47    27    40    1
    48    25    26    1
    49     3     4    1
@<TRIPOS>MOLECULE
*****
 44 49 0 0 0
SMALL
GASTEIGER

@<TRIPOS>ATOM
      1 C         140.4100  143.5923  159.1546 C.2     1  UNL1        0.2425
      2 O         139.2099  142.7099  159.3309 O.2     1  UNL1       -0.2733
      3 N         141.6406  143.0594  158.4826 N.am    1  UNL1       -0.3018
      4 H         142.4283  143.6385  158.3669 H       1  UNL1        0.1495
      5 C         141.6710  141.6440  157.9869 C.3     1  UNL1        0.1035
      6 C         141.7139  140.2930  158.6375 C.3     1  UNL1        0.0933
      7 N         141.7141  139.6422  157.2860 N.3     1  UNL1       -0.2711
      8 C         141.6711  140.9931  156.6355 C.3     1  UNL1        0.0933
      9 C         141.7445  138.2268  156.7903 C.3     1  UNL1        0.0576
     10 C         140.6100  137.6968  155.9644 C.3     1  UNL1        0.0163
     11 C         140.6404  136.2815  155.4687 C.3     1  UNL1        0.0057
     12 C         141.8053  135.3960  155.7989 C.3     1  UNL1        0.0225
     13 C         142.9398  135.9259  156.6249 C.3     1  UNL1        0.0057
     14 C         142.9093  137.3413  157.1206 C.3     1  UNL1        0.0163
     15 C         141.8356  133.9806  155.3032 C.ar    1  UNL1       -0.0193
     16 C         141.4123  133.6688  153.8983 C.ar    1  UNL1       -0.0010
     17 C         141.4426  132.2534  153.4025 C.ar    1  UNL1        0.0399
     18 C         141.8962  131.1499  154.3115 C.ar    1  UNL1        0.1764
     19 C         142.3195  131.4617  155.7164 C.ar    1  UNL1        0.1761
     20 C         142.2892  132.8770  156.2122 C.ar    1  UNL1        0.0359
     21 O         142.7160  130.1749  156.3774 O.3     1  UNL1       -0.4346
     22 C         142.5377  129.0678  155.3810 C.3     1  UNL1        0.4294
     23 O         142.0310  129.6704  154.1043 O.3     1  UNL1       -0.4346
     24 C         140.3796  145.0077  159.6502 C.3     1  UNL1        0.1747
     25 N         141.4642  145.5081  160.5578 N.pl3   1  UNL1       -0.3093
     26 H         141.8434  146.4066  160.4229 H       1  UNL1        0.1487
     27 N         145.7219  142.1416  162.5486 N.am    1  UNL1       -0.3097
     28 C         144.5263  142.3131  163.4382 C.2     1  UNL1        0.3328
     29 O         144.4786  141.6269  164.7710 O.2     1  UNL1       -0.2479
     30 N         143.3784  143.1709  162.9947 N.ar    1  UNL1       -0.1812
     31 N         143.2844  143.9155  161.6960 N.ar    1  UNL1       -0.1466
     32 C         141.9709  144.6394  161.6707 C.ar    1  UNL1        0.1505
     33 C         141.2531  144.3422  162.9539 C.ar    1  UNL1        0.0509
     34 C         139.9198  144.7808  163.4829 C.ar    1  UNL1        0.0082
     35 C         139.4563  144.3117  164.8301 C.ar    1  UNL1        0.0716
     36 C         140.3262  143.4041  165.6484 C.ar    1  UNL1        0.0054
     37 C         141.6595  142.9655  165.1194 C.ar    1  UNL1        0.0193
     38 C         142.1230  143.4346  163.7721 C.ar    1  UNL1        0.0899
     39 H         146.4753  141.5787  162.8397 H       1  UNL1        0.1467
     40 H         145.7532  142.5921  161.6738 H       1  UNL1        0.1467
     41 C         138.1230  144.7503  165.3592 C.3     1  UNL1        0.4186
     42 F         136.7897  145.1888  165.8883 F       1  UNL1       -0.1659
     43 F         138.7902  145.3003  166.5848 F       1  UNL1       -0.1659
     44 F         137.4557  144.2002  164.1336 F       1  UNL1       -0.1659
@<TRIPOS>BOND
     1    27    28   am
     2    28    29    2
     3    28    30   am
     4    30    31   ar
     5    31    32   ar
     6    32    25    1
     7    25    24    1
     8    24     1    1
     9     1     2    2
    10     1     3   am
    11     3     5    1
    12     5     6    1
    13     6     7    1
    14     9     7    1
    15     9    10    1
    16    10    11    1
    17    11    12    1
    18    12    15    1
    19    15    16   ar
    20    16    17   ar
    21    17    18   ar
    22    18    19   ar
    23    19    20   ar
    24    19    21    1
    25    21    22    1
    26    22    23    1
    27    12    13    1
    28    13    14    1
    29     7     8    1
    30    32    33   ar
    31    33    34   ar
    32    34    35   ar
    33    35    41    1
    34    41    42    1
    35    41    43    1
    36    41    44    1
    37    35    36   ar
    38    36    37   ar
    39    37    38   ar
    40    38    30   ar
    41     8     5    1
    42    38    33   ar
    43    14     9    1
    44    20    15   ar
    45    23    18    1
    46    27    39    1
    47    27    40    1
    48    25    26    1
    49     3     4    1
@<TRIPOS>MOLECULE
*****
 44 49 0 0 0
SMALL
GASTEIGER

@<TRIPOS>ATOM
      1 C         138.7707  139.0251  162.8119 C.2     1  UNL1        0.2425
      2 O         137.8245  140.1537  163.0963 O.2     1  UNL1       -0.2733
      3 N         139.7067  139.1075  161.6427 N.am    1  UNL1       -0.3018
      4 H         140.3277  138.3668  161.4561 H       1  UNL1        0.1495
      5 C         139.6964  140.3187  160.7578 C.3     1  UNL1        0.1035
      6 C         138.6332  141.1101  160.0554 C.3     1  UNL1        0.0933
      7 N         139.6818  142.0315  159.5064 N.3     1  UNL1       -0.2711
      8 C         140.7450  141.2401  160.2088 C.3     1  UNL1        0.0933
      9 C         139.6715  143.2427  158.6215 C.3     1  UNL1        0.0576
     10 C         139.1526  143.1416  157.2178 C.3     1  UNL1        0.0163
     11 C         139.1423  144.3526  156.3329 C.3     1  UNL1        0.0057
     12 C         139.6510  145.6650  156.8518 C.3     1  UNL1        0.0225
     13 C         140.1699  145.7661  158.2555 C.3     1  UNL1        0.0057
     14 C         140.1802  144.5550  159.1404 C.3     1  UNL1        0.0163
     15 C         139.6407  146.8760  155.9668 C.ar    1  UNL1       -0.0193
     16 C         140.3922  146.8628  154.6687 C.ar    1  UNL1       -0.0010
     17 C         140.3820  148.0738  153.7836 C.ar    1  UNL1        0.0399
     18 C         139.6202  149.2981  154.1967 C.ar    1  UNL1        0.1764
     19 C         138.8686  149.3114  155.4948 C.ar    1  UNL1        0.1761
     20 C         138.8789  148.1004  156.3798 C.ar    1  UNL1        0.0359
     21 O         138.2125  150.6528  155.6367 O.3     1  UNL1       -0.4346
     22 C         138.5585  151.4685  154.4264 C.3     1  UNL1        0.4294
     23 O         139.4285  150.6313  153.5364 O.3     1  UNL1       -0.4346
     24 C         138.7810  137.8139  163.6968 C.3     1  UNL1        0.1747
     25 N         139.8223  137.6763  164.7678 N.pl3   1  UNL1       -0.3093
     26 H         139.7599  136.9451  165.4240 H       1  UNL1        0.1487
     27 N         144.7536  139.5814  162.4274 N.am    1  UNL1       -0.3097
     28 C         144.2773  140.2864  163.6629 C.2     1  UNL1        0.3328
     29 O         145.0720  141.4251  164.2300 O.2     1  UNL1       -0.2479
     30 N         143.0063  139.8526  164.3311 N.ar    1  UNL1       -0.1812
     31 N         142.1106  138.7365  163.8818 N.ar    1  UNL1       -0.1466
     32 C         140.9586  138.6529  164.8389 C.ar    1  UNL1        0.1505
     33 C         141.1425  139.7174  165.8797 C.ar    1  UNL1        0.0509
     34 C         140.3210  140.1072  167.0726 C.ar    1  UNL1        0.0082
     35 C         140.7651  141.2386  167.9517 C.ar    1  UNL1        0.0716
     36 C         142.0307  141.9801  167.6378 C.ar    1  UNL1        0.0054
     37 C         142.8522  141.5902  166.4449 C.ar    1  UNL1        0.0193
     38 C         142.4081  140.4588  165.5658 C.ar    1  UNL1        0.0899
     39 H         145.5878  139.8661  161.9889 H       1  UNL1        0.1467
     40 H         144.2320  138.8340  162.0552 H       1  UNL1        0.1467
     41 C         139.9436  141.6285  169.1446 C.3     1  UNL1        0.4186
     42 F         139.1222  142.0185  170.3376 F       1  UNL1       -0.1659
     43 F         140.4253  143.0430  169.0139 F       1  UNL1       -0.1659
     44 F         139.4619  140.2141  169.2754 F       1  UNL1       -0.1659
@<TRIPOS>BOND
     1    27    28   am
     2    28    29    2
     3    28    30   am
     4    30    31   ar
     5    31    32   ar
     6    32    25    1
     7    25    24    1
     8    24     1    1
     9     1     2    2
    10     1     3   am
    11     3     5    1
    12     5     6    1
    13     6     7    1
    14     9     7    1
    15     9    10    1
    16    10    11    1
    17    11    12    1
    18    12    15    1
    19    15    16   ar
    20    16    17   ar
    21    17    18   ar
    22    18    19   ar
    23    19    20   ar
    24    19    21    1
    25    21    22    1
    26    22    23    1
    27    12    13    1
    28    13    14    1
    29     7     8    1
    30    32    33   ar
    31    33    34   ar
    32    34    35   ar
    33    35    41    1
    34    41    42    1
    35    41    43    1
    36    41    44    1
    37    35    36   ar
    38    36    37   ar
    39    37    38   ar
    40    38    30   ar
    41     8     5    1
    42    38    33   ar
    43    14     9    1
    44    20    15   ar
    45    23    18    1
    46    27    39    1
    47    27    40    1
    48    25    26    1
    49     3     4    1
@<TRIPOS>MOLECULE
*****
 44 49 0 0 0
SMALL
GASTEIGER

@<TRIPOS>ATOM
      1 C         139.0939  143.9735  162.4816 C.2     1  UNL1        0.2425
      2 O         140.4820  144.1573  163.0196 O.2     1  UNL1       -0.2733
      3 N         138.8912  143.5709  161.0509 N.am    1  UNL1       -0.3018
      4 H         137.9801  143.4503  160.6979 H       1  UNL1        0.1495
      5 C         140.0766  143.3521  160.1583 C.3     1  UNL1        0.1035
      6 C         141.0724  144.2453  159.4794 C.3     1  UNL1        0.0933
      7 N         141.7531  143.0428  158.8958 N.3     1  UNL1       -0.2711
      8 C         140.7574  142.1497  159.5747 C.3     1  UNL1        0.0933
      9 C         142.9386  142.8240  158.0031 C.3     1  UNL1        0.0576
     10 C         144.2992  142.6184  158.6001 C.3     1  UNL1        0.0163
     11 C         145.4846  142.3996  157.7075 C.3     1  UNL1        0.0057
     12 C         145.3094  142.3865  156.2178 C.3     1  UNL1        0.0225
     13 C         143.9488  142.5921  155.6208 C.3     1  UNL1        0.0057
     14 C         142.7634  142.8109  156.5135 C.3     1  UNL1        0.0163
     15 C         146.4949  142.1677  155.3252 C.ar    1  UNL1       -0.0193
     16 C         146.3018  142.0169  153.8453 C.ar    1  UNL1       -0.0010
     17 C         147.4873  141.7981  152.9526 C.ar    1  UNL1        0.0399
     18 C         148.8658  141.7301  153.5399 C.ar    1  UNL1        0.1764
     19 C         149.0590  141.8808  155.0197 C.ar    1  UNL1        0.1761
     20 C         147.8735  142.0996  155.9124 C.ar    1  UNL1        0.0359
     21 O         150.5265  141.7699  155.3093 O.3     1  UNL1       -0.4346
     22 C         151.2404  141.5506  154.0084 C.3     1  UNL1        0.4294
     23 O         150.2141  141.5260  152.9148 O.3     1  UNL1       -0.4346
     24 C         137.9084  144.1922  163.3743 C.3     1  UNL1        0.1747
     25 N         137.4349  143.0907  164.2757 N.pl3   1  UNL1       -0.3093
     26 H         136.6442  143.2271  164.8461 H       1  UNL1        0.1487
     27 N         138.0380  137.7985  162.0278 N.am    1  UNL1       -0.3097
     28 C         138.9592  138.1611  163.1548 C.2     1  UNL1        0.3328
     29 O         139.9726  137.1693  163.6437 O.2     1  UNL1       -0.2479
     30 N         138.8668  139.5156  163.7927 N.ar    1  UNL1       -0.1812
     31 N         137.9088  140.6055  163.4129 N.ar    1  UNL1       -0.1466
     32 C         138.1661  141.7814  164.3079 C.ar    1  UNL1        0.1505
     33 C         139.2831  141.4182  165.2409 C.ar    1  UNL1        0.0509
     34 C         139.9618  142.1816  166.3393 C.ar    1  UNL1        0.0082
     35 C         141.0735  141.5447  167.1192 C.ar    1  UNL1        0.0716
     36 C         141.5066  140.1443  166.8008 C.ar    1  UNL1        0.0054
     37 C         140.8278  139.3808  165.7024 C.ar    1  UNL1        0.0193
     38 C         139.7161  140.0178  164.9225 C.ar    1  UNL1        0.0899
     39 H         138.0986  136.9095  161.6091 H       1  UNL1        0.1467
     40 H         137.3728  138.4494  161.7068 H       1  UNL1        0.1467
     41 C         141.7523  142.3082  168.2176 C.3     1  UNL1        0.4186
     42 F         142.4311  143.0716  169.3160 F       1  UNL1       -0.1659
     43 F         143.0771  141.7547  167.7836 F       1  UNL1       -0.1659
     44 F         140.4275  142.8616  168.6517 F       1  UNL1       -0.1659
@<TRIPOS>BOND
     1    27    28   am
     2    28    29    2
     3    28    30   am
     4    30    31   ar
     5    31    32   ar
     6    32    25    1
     7    25    24    1
     8    24     1    1
     9     1     2    2
    10     1     3   am
    11     3     5    1
    12     5     6    1
    13     6     7    1
    14     9     7    1
    15     9    10    1
    16    10    11    1
    17    11    12    1
    18    12    15    1
    19    15    16   ar
    20    16    17   ar
    21    17    18   ar
    22    18    19   ar
    23    19    20   ar
    24    19    21    1
    25    21    22    1
    26    22    23    1
    27    12    13    1
    28    13    14    1
    29     7     8    1
    30    32    33   ar
    31    33    34   ar
    32    34    35   ar
    33    35    41    1
    34    41    42    1
    35    41    43    1
    36    41    44    1
    37    35    36   ar
    38    36    37   ar
    39    37    38   ar
    40    38    30   ar
    41     8     5    1
    42    38    33   ar
    43    14     9    1
    44    20    15   ar
    45    23    18    1
    46    27    39    1
    47    27    40    1
    48    25    26    1
    49     3     4    1
@<TRIPOS>MOLECULE
*****
 44 49 0 0 0
SMALL
GASTEIGER

@<TRIPOS>ATOM
      1 C         141.6863  142.7594  162.8912 C.2     1  UNL1        0.2425
      2 O         142.8414  141.8120  163.0259 O.2     1  UNL1       -0.2733
      3 N         140.7048  142.5907  161.7695 N.am    1  UNL1       -0.3018
      4 H         139.9466  143.2126  161.6811 H       1  UNL1        0.1495
      5 C         140.8784  141.4746  160.7826 C.3     1  UNL1        0.1035
      6 C         141.3395  141.3804  159.3582 C.3     1  UNL1        0.0933
      7 N         141.1240  139.8962  159.3867 N.3     1  UNL1       -0.2711
      8 C         140.6629  139.9905  160.8109 C.3     1  UNL1        0.0933
      9 C         141.2976  138.7801  158.3997 C.3     1  UNL1        0.0576
     10 C         142.6168  138.0747  158.2896 C.3     1  UNL1        0.0163
     11 C         142.7904  136.9587  157.3027 C.3     1  UNL1        0.0057
     12 C         141.6448  136.5478  156.4257 C.3     1  UNL1        0.0225
     13 C         140.3256  137.2532  156.5359 C.3     1  UNL1        0.0057
     14 C         140.1520  138.3693  157.5228 C.3     1  UNL1        0.0163
     15 C         141.8185  135.4317  155.4388 C.ar    1  UNL1       -0.0193
     16 C         141.1060  135.4794  154.1197 C.ar    1  UNL1       -0.0010
     17 C         141.2797  134.3633  153.1326 C.ar    1  UNL1        0.0399
     18 C         142.1659  133.1996  153.4648 C.ar    1  UNL1        0.1764
     19 C         142.8784  133.1519  154.7839 C.ar    1  UNL1        0.1761
     20 C         142.7047  134.2680  155.7709 C.ar    1  UNL1        0.0359
     21 O         143.6805  131.8853  154.8319 O.3     1  UNL1       -0.4346
     22 C         143.4638  131.1502  153.5425 C.3     1  UNL1        0.4294
     23 O         142.5277  131.9624  152.6975 O.3     1  UNL1       -0.4346
     24 C         141.5127  143.8755  163.8782 C.3     1  UNL1        0.1747
     25 N         140.3251  143.8884  164.7946 N.pl3   1  UNL1       -0.3093
     26 H         139.6742  144.6254  164.7466 H       1  UNL1        0.1487
     27 N         140.8112  142.1157  170.2761 N.am    1  UNL1       -0.3097
     28 C         140.2556  141.1267  169.2945 C.2     1  UNL1        0.3328
     29 O         139.8580  139.7556  169.7549 O.2     1  UNL1       -0.2479
     30 N         140.0975  141.5089  167.8527 N.ar    1  UNL1       -0.1812
     31 N         140.4499  142.8359  167.2486 N.ar    1  UNL1       -0.1466
     32 C         140.1295  142.7783  165.7843 C.ar    1  UNL1        0.1505
     33 C         139.5792  141.4157  165.4834 C.ar    1  UNL1        0.0509
     34 C         139.0935  140.7880  164.2106 C.ar    1  UNL1        0.0082
     35 C         138.5881  139.3758  164.2162 C.ar    1  UNL1        0.0716
     36 C         138.5683  138.5912  165.4945 C.ar    1  UNL1        0.0054
     37 C         139.0540  139.2189  166.7673 C.ar    1  UNL1        0.0193
     38 C         139.5594  140.6312  166.7618 C.ar    1  UNL1        0.0899
     39 H         140.9149  141.8648  171.2224 H       1  UNL1        0.1467
     40 H         141.0722  143.0156  169.9739 H       1  UNL1        0.1467
     41 C         138.1024  138.7480  162.9433 C.3     1  UNL1        0.4186
     42 F         137.6167  138.1202  161.6706 F       1  UNL1       -0.1659
     43 F         138.5832  137.4095  163.4200 F       1  UNL1       -0.1659
     44 F         137.6215  140.0864  162.4666 F       1  UNL1       -0.1659
@<TRIPOS>BOND
     1    27    28   am
     2    28    29    2
     3    28    30   am
     4    30    31   ar
     5    31    32   ar
     6    32    25    1
     7    25    24    1
     8    24     1    1
     9     1     2    2
    10     1     3   am
    11     3     5    1
    12     5     6    1
    13     6     7    1
    14     9     7    1
    15     9    10    1
    16    10    11    1
    17    11    12    1
    18    12    15    1
    19    15    16   ar
    20    16    17   ar
    21    17    18   ar
    22    18    19   ar
    23    19    20   ar
    24    19    21    1
    25    21    22    1
    26    22    23    1
    27    12    13    1
    28    13    14    1
    29     7     8    1
    30    32    33   ar
    31    33    34   ar
    32    34    35   ar
    33    35    41    1
    34    41    42    1
    35    41    43    1
    36    41    44    1
    37    35    36   ar
    38    36    37   ar
    39    37    38   ar
    40    38    30   ar
    41     8     5    1
    42    38    33   ar
    43    14     9    1
    44    20    15   ar
    45    23    18    1
    46    27    39    1
    47    27    40    1
    48    25    26    1
    49     3     4    1
@<TRIPOS>MOLECULE
*****
 44 49 0 0 0
SMALL
GASTEIGER

@<TRIPOS>ATOM
      1 C         144.3922  140.4916  162.1873 C.2     1  UNL1        0.2425
      2 O         144.4519  139.0543  162.6123 O.2     1  UNL1       -0.2733
      3 N         143.9362  140.8462  160.8031 N.am    1  UNL1       -0.3018
      4 H         143.8970  141.7896  160.5242 H       1  UNL1        0.1495
      5 C         143.5398  139.7634  159.8437 C.3     1  UNL1        0.1035
      6 C         142.9305  138.3991  159.9769 C.3     1  UNL1        0.0933
      7 N         142.9792  138.2320  158.4870 N.3     1  UNL1       -0.2711
      8 C         143.5885  139.5962  158.3539 C.3     1  UNL1        0.0933
      9 C         142.5828  137.1492  157.5276 C.3     1  UNL1        0.0576
     10 C         143.3359  135.8521  157.5078 C.3     1  UNL1        0.0163
     11 C         142.9395  134.7693  156.5485 C.3     1  UNL1        0.0057
     12 C         141.7901  134.9835  155.6088 C.3     1  UNL1        0.0225
     13 C         141.0370  136.2806  155.6286 C.3     1  UNL1        0.0057
     14 C         141.4334  137.3635  156.5880 C.3     1  UNL1        0.0163
     15 C         141.3938  133.9007  154.6496 C.ar    1  UNL1       -0.0193
     16 C         141.3036  134.1954  153.1815 C.ar    1  UNL1       -0.0010
     17 C         140.9073  133.1126  152.2221 C.ar    1  UNL1        0.0399
     18 C         140.6012  131.7351  152.7307 C.ar    1  UNL1        0.1764
     19 C         140.6914  131.4403  154.1987 C.ar    1  UNL1        0.1761
     20 C         141.0877  132.5231  155.1581 C.ar    1  UNL1        0.0359
     21 O         140.3336  129.9983  154.4048 O.3     1  UNL1       -0.4346
     22 C         140.0223  129.4018  153.0641 C.3     1  UNL1        0.4294
     23 O         140.1877  130.4752  152.0295 O.3     1  UNL1       -0.4346
     24 C         144.7886  141.5745  163.1467 C.3     1  UNL1        0.1747
     25 N         144.1819  142.9412  163.0275 N.pl3   1  UNL1       -0.3093
     26 H         144.6903  143.6702  162.6039 H       1  UNL1        0.1487
     27 N         138.8484  144.8930  161.9464 N.am    1  UNL1       -0.3097
     28 C         139.1118  144.3840  163.3327 C.2     1  UNL1        0.3328
     29 O         138.0168  144.3987  164.3577 O.2     1  UNL1       -0.2479
     30 N         140.4703  143.8603  163.6938 N.ar    1  UNL1       -0.1812
     31 N         141.6571  143.7834  162.7799 N.ar    1  UNL1       -0.1466
     32 C         142.8007  143.1971  163.5535 C.ar    1  UNL1        0.1505
     33 C         142.3206  142.9118  164.9457 C.ar    1  UNL1        0.0509
     34 C         143.0088  142.3317  166.1456 C.ar    1  UNL1        0.0082
     35 C         142.2567  142.1614  167.4322 C.ar    1  UNL1        0.0716
     36 C         140.8164  142.5713  167.5189 C.ar    1  UNL1        0.0054
     37 C         140.1282  143.1514  166.3190 C.ar    1  UNL1        0.0193
     38 C         140.8803  143.3216  165.0324 C.ar    1  UNL1        0.0899
     39 H         137.9568  145.2367  161.7094 H       1  UNL1        0.1467
     40 H         139.5671  144.8834  161.2737 H       1  UNL1        0.1467
     41 C         142.9450  141.5813  168.6321 C.3     1  UNL1        0.4186
     42 F         143.6332  141.0011  169.8320 F       1  UNL1       -0.1659
     43 F         142.9775  140.2386  167.9643 F       1  UNL1       -0.1659
     44 F         142.9124  142.9240  169.3000 F       1  UNL1       -0.1659
@<TRIPOS>BOND
     1    27    28   am
     2    28    29    2
     3    28    30   am
     4    30    31   ar
     5    31    32   ar
     6    32    25    1
     7    25    24    1
     8    24     1    1
     9     1     2    2
    10     1     3   am
    11     3     5    1
    12     5     6    1
    13     6     7    1
    14     9     7    1
    15     9    10    1
    16    10    11    1
    17    11    12    1
    18    12    15    1
    19    15    16   ar
    20    16    17   ar
    21    17    18   ar
    22    18    19   ar
    23    19    20   ar
    24    19    21    1
    25    21    22    1
    26    22    23    1
    27    12    13    1
    28    13    14    1
    29     7     8    1
    30    32    33   ar
    31    33    34   ar
    32    34    35   ar
    33    35    41    1
    34    41    42    1
    35    41    43    1
    36    41    44    1
    37    35    36   ar
    38    36    37   ar
    39    37    38   ar
    40    38    30   ar
    41     8     5    1
    42    38    33   ar
    43    14     9    1
    44    20    15   ar
    45    23    18    1
    46    27    39    1
    47    27    40    1
    48    25    26    1
    49     3     4    1
@<TRIPOS>MOLECULE
*****
 44 49 0 0 0
SMALL
GASTEIGER

@<TRIPOS>ATOM
      1 C         143.8821  143.5507  162.1691 C.2     1  UNL1        0.2425
      2 O         144.5807  142.2874  162.5765 O.2     1  UNL1       -0.2733
      3 N         143.1076  143.5991  160.8855 N.am    1  UNL1       -0.3018
      4 H         142.6491  144.4282  160.6181 H       1  UNL1        0.1495
      5 C         143.0319  142.3841  160.0091 C.3     1  UNL1        0.1035
      6 C         141.9884  141.3444  159.7252 C.3     1  UNL1        0.0933
      7 N         142.9246  140.6657  158.7697 N.3     1  UNL1       -0.2711
      8 C         143.9680  141.7054  159.0536 C.3     1  UNL1        0.0933
      9 C         142.8489  139.4507  157.8934 C.3     1  UNL1        0.0576
     10 C         142.7398  138.0874  158.5093 C.3     1  UNL1        0.0163
     11 C         142.6641  136.8724  157.6330 C.3     1  UNL1        0.0057
     12 C         142.6974  137.0207  156.1406 C.3     1  UNL1        0.0225
     13 C         142.8064  138.3841  155.5247 C.3     1  UNL1        0.0057
     14 C         142.8821  139.5991  156.4011 C.3     1  UNL1        0.0163
     15 C         142.6216  135.8057  155.2644 C.ar    1  UNL1       -0.0193
     16 C         141.9961  135.8997  153.9042 C.ar    1  UNL1       -0.0010
     17 C         141.9203  134.6847  153.0278 C.ar    1  UNL1        0.0399
     18 C         142.4699  133.3756  153.5117 C.ar    1  UNL1        0.1764
     19 C         143.0954  133.2815  154.8718 C.ar    1  UNL1        0.1761
     20 C         143.1712  134.4965  155.7482 C.ar    1  UNL1        0.0359
     21 O         143.5488  131.8664  155.0766 O.3     1  UNL1       -0.4346
     22 C         143.2036  131.0860  153.8430 C.3     1  UNL1        0.4294
     23 O         142.5368  132.0187  152.8758 O.3     1  UNL1       -0.4346
     24 C         143.9578  144.7657  163.0455 C.3     1  UNL1        0.1747
     25 N         142.8264  145.0919  163.9748 N.pl3   1  UNL1       -0.3093
     26 H         142.8695  145.8974  164.5392 H       1  UNL1        0.1487
     27 N         137.7411  143.5727  161.6820 N.am    1  UNL1       -0.3097
     28 C         138.1904  142.8081  162.8919 C.2     1  UNL1        0.3328
     29 O         137.3317  141.7108  163.4471 O.2     1  UNL1       -0.2479
     30 N         139.4983  143.1410  163.5465 N.ar    1  UNL1       -0.1812
     31 N         140.4584  144.2064  163.1067 N.ar    1  UNL1       -0.1466
     32 C         141.6292  144.1908  164.0442 C.ar    1  UNL1        0.1505
     33 C         141.3928  143.1158  165.0633 C.ar    1  UNL1        0.0509
     34 C         142.2066  142.6439  166.2316 C.ar    1  UNL1        0.0082
     35 C         141.7034  141.5232  167.0923 C.ar    1  UNL1        0.0716
     36 C         140.3864  140.8744  166.7847 C.ar    1  UNL1        0.0054
     37 C         139.5726  141.3463  165.6164 C.ar    1  UNL1        0.0193
     38 C         140.0758  142.4670  164.7557 C.ar    1  UNL1        0.0899
     39 H         136.8827  143.3542  161.2523 H       1  UNL1        0.1467
     40 H         138.3048  144.2930  161.3175 H       1  UNL1        0.1467
     41 C         142.5172  141.0512  168.2607 C.3     1  UNL1        0.4186
     42 F         143.3309  140.5793  169.4291 F       1  UNL1       -0.1659
     43 F         141.7329  139.7730  168.2906 F       1  UNL1       -0.1659
     44 F         143.3015  142.3295  168.2308 F       1  UNL1       -0.1659
@<TRIPOS>BOND
     1    27    28   am
     2    28    29    2
     3    28    30   am
     4    30    31   ar
     5    31    32   ar
     6    32    25    1
     7    25    24    1
     8    24     1    1
     9     1     2    2
    10     1     3   am
    11     3     5    1
    12     5     6    1
    13     6     7    1
    14     9     7    1
    15     9    10    1
    16    10    11    1
    17    11    12    1
    18    12    15    1
    19    15    16   ar
    20    16    17   ar
    21    17    18   ar
    22    18    19   ar
    23    19    20   ar
    24    19    21    1
    25    21    22    1
    26    22    23    1
    27    12    13    1
    28    13    14    1
    29     7     8    1
    30    32    33   ar
    31    33    34   ar
    32    34    35   ar
    33    35    41    1
    34    41    42    1
    35    41    43    1
    36    41    44    1
    37    35    36   ar
    38    36    37   ar
    39    37    38   ar
    40    38    30   ar
    41     8     5    1
    42    38    33   ar
    43    14     9    1
    44    20    15   ar
    45    23    18    1
    46    27    39    1
    47    27    40    1
    48    25    26    1
    49     3     4    1
@<TRIPOS>MOLECULE
*****
 44 49 0 0 0
SMALL
GASTEIGER

@<TRIPOS>ATOM
      1 C         141.9258  136.8093  156.0740 C.2     1  UNL1        0.2425
      2 O         142.7804  135.9941  156.9986 O.2     1  UNL1       -0.2733
      3 N         141.0364  137.8835  156.6263 N.am    1  UNL1       -0.3018
      4 H         140.4755  138.4185  156.0194 H       1  UNL1        0.1495
      5 C         141.0017  138.1424  158.1034 C.3     1  UNL1        0.1035
      6 C         142.0373  138.3005  159.1772 C.3     1  UNL1        0.0933
      7 N         140.9528  138.5086  160.1923 N.3     1  UNL1       -0.2711
      8 C         139.9173  138.3505  159.1186 C.3     1  UNL1        0.0933
      9 C         140.9180  138.7676  161.6694 C.3     1  UNL1        0.0576
     10 C         140.9748  140.1748  162.1857 C.3     1  UNL1        0.0163
     11 C         140.9401  140.4337  163.6627 C.3     1  UNL1        0.0057
     12 C         140.8486  139.2855  164.6236 C.3     1  UNL1        0.0225
     13 C         140.7918  137.8783  164.1073 C.3     1  UNL1        0.0057
     14 C         140.8265  137.6193  162.6302 C.3     1  UNL1        0.0163
     15 C         140.8139  139.5445  166.1006 C.ar    1  UNL1       -0.0193
     16 C         139.5021  139.7733  166.7912 C.ar    1  UNL1       -0.0010
     17 C         139.4673  140.0324  168.2683 C.ar    1  UNL1        0.0399
     18 C         140.7443  140.0627  169.0547 C.ar    1  UNL1        0.1764
     19 C         142.0560  139.8339  168.3641 C.ar    1  UNL1        0.1761
     20 C         142.0908  139.5748  166.8870 C.ar    1  UNL1        0.0359
     21 O         143.1434  139.9221  169.3935 O.3     1  UNL1       -0.4346
     22 C         142.5037  140.2054  170.7204 C.3     1  UNL1        0.4294
     23 O         141.0209  140.2923  170.5110 O.3     1  UNL1       -0.4346
     24 C         141.9605  136.5504  154.5969 C.3     1  UNL1        0.1747
     25 N         142.7702  135.4101  154.0541 N.pl3   1  UNL1       -0.3093
     26 H         143.6243  135.5864  153.5974 H       1  UNL1        0.1487
     27 N         139.0298  131.3491  152.3387 N.am    1  UNL1       -0.3097
     28 C         140.0031  130.9591  153.4115 C.2     1  UNL1        0.3328
     29 O         139.9729  129.5730  153.9836 O.2     1  UNL1       -0.2479
     30 N         141.0065  131.9555  153.9120 N.ar    1  UNL1       -0.1812
     31 N         141.1558  133.3707  153.4379 N.ar    1  UNL1       -0.1466
     32 C         142.2784  134.0013  154.2074 C.ar    1  UNL1        0.1505
     33 C         142.8229  132.9758  155.1571 C.ar    1  UNL1        0.0509
     34 C         143.9329  133.0301  156.1645 C.ar    1  UNL1        0.0082
     35 C         144.2569  131.8199  156.9893 C.ar    1  UNL1        0.0716
     36 C         143.4708  130.5554  156.8068 C.ar    1  UNL1        0.0054
     37 C         142.3608  130.5012  155.7994 C.ar    1  UNL1        0.0193
     38 C         142.0368  131.7114  154.9745 C.ar    1  UNL1        0.0899
     39 H         138.3712  130.6952  152.0102 H       1  UNL1        0.1467
     40 H         139.0496  132.2590  151.9632 H       1  UNL1        0.1467
     41 C         145.3669  131.8740  157.9968 C.3     1  UNL1        0.4186
     42 F         146.4769  131.9283  159.0042 F       1  UNL1       -0.1659
     43 F         145.2081  133.3625  158.0917 F       1  UNL1       -0.1659
     44 F         145.5258  130.3855  157.9018 F       1  UNL1       -0.1659
@<TRIPOS>BOND
     1    27    28   am
     2    28    29    2
     3    28    30   am
     4    30    31   ar
     5    31    32   ar
     6    32    25    1
     7    25    24    1
     8    24     1    1
     9     1     2    2
    10     1     3   am
    11     3     5    1
    12     5     6    1
    13     6     7    1
    14     9     7    1
    15     9    10    1
    16    10    11    1
    17    11    12    1
    18    12    15    1
    19    15    16   ar
    20    16    17   ar
    21    17    18   ar
    22    18    19   ar
    23    19    20   ar
    24    19    21    1
    25    21    22    1
    26    22    23    1
    27    12    13    1
    28    13    14    1
    29     7     8    1
    30    32    33   ar
    31    33    34   ar
    32    34    35   ar
    33    35    41    1
    34    41    42    1
    35    41    43    1
    36    41    44    1
    37    35    36   ar
    38    36    37   ar
    39    37    38   ar
    40    38    30   ar
    41     8     5    1
    42    38    33   ar
    43    14     9    1
    44    20    15   ar
    45    23    18    1
    46    27    39    1
    47    27    40    1
    48    25    26    1
    49     3     4    1
