@<TRIPOS>MOLECULE
*****
 36 40 0 0 0
SMALL
GASTEIGER

@<TRIPOS>ATOM
      1 N         137.8424  143.0063  163.1112 N.3     1  UNL1       -0.2710
      2 C         138.0233  142.7490  161.6445 C.3     1  UNL1        0.0735
      3 C         138.0250  141.3420  161.1246 C.3     1  UNL1        0.0331
      4 C         137.8457  140.1924  162.0713 C.3     1  UNL1        0.0570
      5 C         137.6649  140.4498  163.5379 C.3     1  UNL1        0.0331
      6 C         137.6632  141.8567  164.0578 C.3     1  UNL1        0.0735
      7 N         137.8474  138.7853  161.5513 N.3     1  UNL1       -0.2934
      8 H         137.2602  138.7789  160.7173 H       1  UNL1        0.1236
      9 C         139.1413  138.1264  161.1750 C.3     1  UNL1        0.1152
     10 C         140.3476  138.2871  162.0518 C.ar    1  UNL1        0.0765
     11 C         140.4972  137.4442  163.2835 C.ar    1  UNL1        0.0193
     12 C         141.7036  137.6049  164.1603 C.ar    1  UNL1        0.0411
     13 C         142.7604  138.6085  163.8054 C.ar    1  UNL1        0.1708
     14 C         142.6108  139.4514  162.5736 C.ar    1  UNL1        0.1682
     15 N         141.4044  139.2907  161.6968 N.ar    1  UNL1       -0.2304
     16 N         143.6676  140.4550  162.2187 N.am    1  UNL1       -0.2639
     17 C         144.8740  140.6157  163.0956 C.2     1  UNL1        0.2718
     18 O         145.9308  141.6193  162.7406 O.2     1  UNL1       -0.2707
     19 C         145.0236  139.7729  164.3273 C.3     1  UNL1        0.2898
     20 O         143.9668  138.7693  164.6822 O.3     1  UNL1       -0.4628
     21 H         143.5694  141.0082  161.4103 H       1  UNL1        0.1565
     22 C         137.8408  144.4134  163.6311 C.3     1  UNL1        0.0970
     23 C         138.9509  144.8846  164.5231 C.3     1  UNL1        0.1279
     24 C         140.9139  142.0177  167.3826 C.ar    1  UNL1        0.1403
     25 C         142.3203  141.5580  167.1365 C.ar    1  UNL1        0.0386
     26 C         143.0724  142.0539  165.9371 C.ar    1  UNL1        0.0255
     27 C         142.4181  143.0096  164.9839 C.ar    1  UNL1        0.1190
     28 N         143.1702  143.5055  163.7846 N.ar    1  UNL1       -0.1422
     29 N         142.5158  144.4611  162.8314 N.ar    1  UNL1       -0.0896
     30 C         141.1094  144.9209  163.0776 C.ar    1  UNL1        0.3679
     31 O         140.4550  145.8765  162.1244 O.2     1  UNL1       -0.2428
     32 N         140.3573  144.4249  164.2769 N.ar    1  UNL1       -0.2757
     33 C         141.0117  143.4692  165.2301 C.ar    1  UNL1        0.0863
     34 C         140.2596  142.9733  166.4295 C.ar    1  UNL1        0.0558
     35 C         139.5374  140.1581  168.5645 C.3     1  UNL1        0.2525
     36 O         140.1619  141.5217  168.5820 O.3     1  UNL1       -0.4714
@<TRIPOS>BOND
     1    35    36    1
     2    36    24    1
     3    24    25   ar
     4    25    26   ar
     5    26    27   ar
     6    27    28   ar
     7    28    29   ar
     8    29    30   ar
     9    30    31    2
    10    30    32   ar
    11    32    23    1
    12    23    22    1
    13    22     1    1
    14     1     2    1
    15     2     3    1
    16     3     4    1
    17     4     7    1
    18     7     9    1
    19     9    10    1
    20    10    11   ar
    21    11    12   ar
    22    12    13   ar
    23    13    14   ar
    24    14    15   ar
    25    14    16    1
    26    16    17   am
    27    17    18    2
    28    17    19    1
    29    19    20    1
    30     4     5    1
    31     5     6    1
    32    32    33   ar
    33    33    34   ar
    34    34    24   ar
    35    33    27   ar
    36     6     1    1
    37    15    10   ar
    38    20    13    1
    39     7     8    1
    40    16    21    1
@<TRIPOS>MOLECULE
*****
 36 40 0 0 0
SMALL
GASTEIGER

@<TRIPOS>ATOM
      1 N         141.5910  138.4068  163.5621 N.3     1  UNL1       -0.2710
      2 C         142.0048  138.8074  162.1770 C.3     1  UNL1        0.0735
      3 C         143.3023  139.5283  161.9609 C.3     1  UNL1        0.0331
      4 C         144.1860  139.8487  163.1298 C.3     1  UNL1        0.0570
      5 C         143.7722  139.4481  164.5149 C.3     1  UNL1        0.0331
      6 C         142.4747  138.7271  164.7310 C.3     1  UNL1        0.0735
      7 N         145.4835  140.5697  162.9137 N.3     1  UNL1       -0.2934
      8 H         145.7082  140.4808  161.9228 H       1  UNL1        0.1236
      9 C         145.5982  142.0258  163.2549 C.3     1  UNL1        0.1152
     10 C         144.4041  142.9237  163.1217 C.ar    1  UNL1        0.0765
     11 C         143.7873  143.5376  164.3434 C.ar    1  UNL1        0.0193
     12 C         142.5931  144.4355  164.2103 C.ar    1  UNL1        0.0411
     13 C         142.0157  144.7194  162.8553 C.ar    1  UNL1        0.1708
     14 C         142.6324  144.1055  161.6335 C.ar    1  UNL1        0.1682
     15 N         143.8266  143.2076  161.7667 N.ar    1  UNL1       -0.2304
     16 N         142.0550  144.3894  160.2786 N.am    1  UNL1       -0.2639
     17 C         140.8607  145.2873  160.1454 C.2     1  UNL1        0.2718
     18 O         140.2833  145.5713  158.7904 O.2     1  UNL1       -0.2707
     19 C         140.2440  145.9012  161.3671 C.3     1  UNL1        0.2898
     20 O         140.8215  145.6173  162.7221 O.3     1  UNL1       -0.4628
     21 H         142.4598  143.9865  159.4767 H       1  UNL1        0.1565
     22 C         140.2935  137.6858  163.7782 C.3     1  UNL1        0.0970
     23 C         139.1101  138.4216  164.3332 C.3     1  UNL1        0.1279
     24 C         139.7946  142.4965  166.1154 C.ar    1  UNL1        0.1403
     25 C         139.2753  143.7177  165.4162 C.ar    1  UNL1        0.0386
     26 C         138.5278  143.5807  164.1230 C.ar    1  UNL1        0.0255
     27 C         138.2997  142.2224  163.5289 C.ar    1  UNL1        0.1190
     28 N         137.5522  142.0853  162.2356 N.ar    1  UNL1       -0.1422
     29 N         137.3240  140.7270  161.6416 N.ar    1  UNL1       -0.0896
     30 C         137.8433  139.5057  162.3408 C.ar    1  UNL1        0.3679
     31 O         137.6151  138.1474  161.7467 O.2     1  UNL1       -0.2428
     32 N         138.5908  139.6428  163.6340 N.ar    1  UNL1       -0.2757
     33 C         138.8189  141.0012  164.2281 C.ar    1  UNL1        0.0863
     34 C         139.5664  141.1382  165.5214 C.ar    1  UNL1        0.0558
     35 C         140.3675  141.6069  168.4882 C.3     1  UNL1        0.2525
     36 O         140.5420  142.6336  167.4087 O.3     1  UNL1       -0.4714
@<TRIPOS>BOND
     1    35    36    1
     2    36    24    1
     3    24    25   ar
     4    25    26   ar
     5    26    27   ar
     6    27    28   ar
     7    28    29   ar
     8    29    30   ar
     9    30    31    2
    10    30    32   ar
    11    32    23    1
    12    23    22    1
    13    22     1    1
    14     1     2    1
    15     2     3    1
    16     3     4    1
    17     4     7    1
    18     7     9    1
    19     9    10    1
    20    10    11   ar
    21    11    12   ar
    22    12    13   ar
    23    13    14   ar
    24    14    15   ar
    25    14    16    1
    26    16    17   am
    27    17    18    2
    28    17    19    1
    29    19    20    1
    30     4     5    1
    31     5     6    1
    32    32    33   ar
    33    33    34   ar
    34    34    24   ar
    35    33    27   ar
    36     6     1    1
    37    15    10   ar
    38    20    13    1
    39     7     8    1
    40    16    21    1
@<TRIPOS>MOLECULE
*****
 36 40 0 0 0
SMALL
GASTEIGER

@<TRIPOS>ATOM
      1 N         144.5708  140.3071  163.4314 N.3     1  UNL1       -0.2710
      2 C         144.1231  140.2237  162.0022 C.3     1  UNL1        0.0735
      3 C         143.0682  139.2348  161.6033 C.3     1  UNL1        0.0331
      4 C         142.4611  138.3293  162.6336 C.3     1  UNL1        0.0570
      5 C         142.9088  138.4127  164.0627 C.3     1  UNL1        0.0331
      6 C         143.9637  139.4017  164.4617 C.3     1  UNL1        0.0735
      7 N         141.4061  137.3403  162.2347 N.3     1  UNL1       -0.2934
      8 H         141.2770  136.7116  163.0275 H       1  UNL1        0.1236
      9 C         140.0419  137.8191  161.8350 C.3     1  UNL1        0.1152
     10 C         139.4271  138.9973  162.5305 C.ar    1  UNL1        0.0765
     11 C         138.7351  138.8130  163.8484 C.ar    1  UNL1        0.0193
     12 C         138.1202  139.9913  164.5440 C.ar    1  UNL1        0.0411
     13 C         138.1974  141.3538  163.9214 C.ar    1  UNL1        0.1708
     14 C         138.8894  141.5381  162.6034 C.ar    1  UNL1        0.1682
     15 N         139.5042  140.3599  161.9079 N.ar    1  UNL1       -0.2304
     16 N         138.9666  142.9006  161.9808 N.am    1  UNL1       -0.2639
     17 C         138.3517  144.0789  162.6764 C.2     1  UNL1        0.2718
     18 O         138.4288  145.4414  162.0538 O.2     1  UNL1       -0.2707
     19 C         137.6597  143.8946  163.9943 C.3     1  UNL1        0.2898
     20 O         137.5825  142.5321  164.6169 O.3     1  UNL1       -0.4628
     21 H         139.4208  143.0216  161.1158 H       1  UNL1        0.1565
     22 C         145.6258  141.2961  163.8303 C.3     1  UNL1        0.0970
     23 C         145.2342  142.5856  164.4891 C.3     1  UNL1        0.1279
     24 C         142.2738  141.6731  167.7530 C.ar    1  UNL1        0.1403
     25 C         140.8631  142.1715  167.6468 C.ar    1  UNL1        0.0386
     26 C         140.4391  142.9740  166.4525 C.ar    1  UNL1        0.0255
     27 C         141.4258  143.2782  165.3646 C.ar    1  UNL1        0.1190
     28 N         141.0018  144.0807  164.1703 N.ar    1  UNL1       -0.1422
     29 N         141.9886  144.3848  163.0824 N.ar    1  UNL1       -0.0896
     30 C         143.3994  143.8865  163.1886 C.ar    1  UNL1        0.3679
     31 O         144.3862  144.1906  162.1006 O.2     1  UNL1       -0.2428
     32 N         143.8234  143.0840  164.3828 N.ar    1  UNL1       -0.2757
     33 C         142.8366  142.7798  165.4708 C.ar    1  UNL1        0.0863
     34 C         143.2606  141.9773  166.6651 C.ar    1  UNL1        0.0558
     35 C         141.8564  139.7204  169.4151 C.3     1  UNL1        0.2525
     36 O         142.6978  140.8706  168.9473 O.3     1  UNL1       -0.4714
@<TRIPOS>BOND
     1    35    36    1
     2    36    24    1
     3    24    25   ar
     4    25    26   ar
     5    26    27   ar
     6    27    28   ar
     7    28    29   ar
     8    29    30   ar
     9    30    31    2
    10    30    32   ar
    11    32    23    1
    12    23    22    1
    13    22     1    1
    14     1     2    1
    15     2     3    1
    16     3     4    1
    17     4     7    1
    18     7     9    1
    19     9    10    1
    20    10    11   ar
    21    11    12   ar
    22    12    13   ar
    23    13    14   ar
    24    14    15   ar
    25    14    16    1
    26    16    17   am
    27    17    18    2
    28    17    19    1
    29    19    20    1
    30     4     5    1
    31     5     6    1
    32    32    33   ar
    33    33    34   ar
    34    34    24   ar
    35    33    27   ar
    36     6     1    1
    37    15    10   ar
    38    20    13    1
    39     7     8    1
    40    16    21    1
@<TRIPOS>MOLECULE
*****
 36 40 0 0 0
SMALL
GASTEIGER

@<TRIPOS>ATOM
      1 N         143.3379  140.4455  160.6685 N.3     1  UNL1       -0.2710
      2 C         141.8411  140.4593  160.7655 C.3     1  UNL1        0.0735
      3 C         141.1220  139.3228  161.4296 C.3     1  UNL1        0.0331
      4 C         141.8997  138.1724  161.9967 C.3     1  UNL1        0.0570
      5 C         143.3965  138.1585  161.8997 C.3     1  UNL1        0.0331
      6 C         144.1156  139.2951  161.2356 C.3     1  UNL1        0.0735
      7 N         141.1807  137.0357  162.6609 N.3     1  UNL1       -0.2934
      8 H         141.5835  136.1753  162.2896 H       1  UNL1        0.1236
      9 C         141.1945  136.9106  164.1556 C.3     1  UNL1        0.1152
     10 C         140.9069  138.1085  165.0112 C.ar    1  UNL1        0.0765
     11 C         139.4927  138.5693  165.2054 C.ar    1  UNL1        0.0193
     12 C         139.2051  139.7673  166.0610 C.ar    1  UNL1        0.0411
     13 C         140.3316  140.5045  166.7225 C.ar    1  UNL1        0.1708
     14 C         141.7458  140.0436  166.5283 C.ar    1  UNL1        0.1682
     15 N         142.0334  138.8456  165.6727 N.ar    1  UNL1       -0.2304
     16 N         142.8724  140.7807  167.1898 N.am    1  UNL1       -0.2639
     17 C         142.5847  141.9787  168.0455 C.2     1  UNL1        0.2718
     18 O         143.7112  142.7158  168.7070 O.2     1  UNL1       -0.2707
     19 C         141.1705  142.4395  168.2396 C.3     1  UNL1        0.2898
     20 O         140.0440  141.7024  167.5782 O.3     1  UNL1       -0.4628
     21 H         143.8005  140.4783  167.0624 H       1  UNL1        0.1565
     22 C         144.0570  141.5821  160.0043 C.3     1  UNL1        0.0970
     23 C         144.4615  142.7841  160.8054 C.3     1  UNL1        0.1279
     24 C         140.6207  144.9871  161.6081 C.ar    1  UNL1        0.1403
     25 C         140.1297  145.1500  163.0161 C.ar    1  UNL1        0.0386
     26 C         140.9189  144.5785  164.1565 C.ar    1  UNL1        0.0255
     27 C         142.1992  143.8442  163.8889 C.ar    1  UNL1        0.1190
     28 N         142.9884  143.2727  165.0293 N.ar    1  UNL1       -0.1422
     29 N         144.2687  142.5383  164.7618 N.ar    1  UNL1       -0.0896
     30 C         144.7598  142.3754  163.3538 C.ar    1  UNL1        0.3679
     31 O         146.0400  141.6411  163.0862 O.2     1  UNL1       -0.2428
     32 N         143.9705  142.9469  162.2134 N.ar    1  UNL1       -0.2757
     33 C         142.6902  143.6813  162.4810 C.ar    1  UNL1        0.0863
     34 C         141.9009  144.2528  161.3406 C.ar    1  UNL1        0.0558
     35 C         140.3326  145.4132  159.0615 C.3     1  UNL1        0.2525
     36 O         139.8314  145.5586  160.4678 O.3     1  UNL1       -0.4714
@<TRIPOS>BOND
     1    35    36    1
     2    36    24    1
     3    24    25   ar
     4    25    26   ar
     5    26    27   ar
     6    27    28   ar
     7    28    29   ar
     8    29    30   ar
     9    30    31    2
    10    30    32   ar
    11    32    23    1
    12    23    22    1
    13    22     1    1
    14     1     2    1
    15     2     3    1
    16     3     4    1
    17     4     7    1
    18     7     9    1
    19     9    10    1
    20    10    11   ar
    21    11    12   ar
    22    12    13   ar
    23    13    14   ar
    24    14    15   ar
    25    14    16    1
    26    16    17   am
    27    17    18    2
    28    17    19    1
    29    19    20    1
    30     4     5    1
    31     5     6    1
    32    32    33   ar
    33    33    34   ar
    34    34    24   ar
    35    33    27   ar
    36     6     1    1
    37    15    10   ar
    38    20    13    1
    39     7     8    1
    40    16    21    1
@<TRIPOS>MOLECULE
*****
 36 40 0 0 0
SMALL
GASTEIGER

@<TRIPOS>ATOM
      1 N         143.6624  142.0279  163.4059 N.3     1  UNL1       -0.2710
      2 C         142.9433  142.6327  164.5751 C.3     1  UNL1        0.0735
      3 C         142.1667  143.9043  164.4018 C.3     1  UNL1        0.0331
      4 C         142.1094  144.5711  163.0594 C.3     1  UNL1        0.0570
      5 C         142.8286  143.9662  161.8902 C.3     1  UNL1        0.0331
      6 C         143.6051  142.6946  162.0635 C.3     1  UNL1        0.0735
      7 N         141.3329  145.8427  162.8861 N.3     1  UNL1       -0.2934
      8 H         141.8073  146.3809  162.1611 H       1  UNL1        0.1236
      9 C         139.8825  145.7900  162.5071 C.3     1  UNL1        0.1152
     10 C         139.2104  144.4660  162.2948 C.ar    1  UNL1        0.0765
     11 C         138.4408  143.8277  163.4129 C.ar    1  UNL1        0.0193
     12 C         137.7686  142.5036  163.2006 C.ar    1  UNL1        0.0411
     13 C         137.8661  141.8178  161.8701 C.ar    1  UNL1        0.1708
     14 C         138.6358  142.4562  160.7519 C.ar    1  UNL1        0.1682
     15 N         139.3079  143.7802  160.9643 N.ar    1  UNL1       -0.2304
     16 N         138.7333  141.7704  159.4214 N.am    1  UNL1       -0.2639
     17 C         138.0611  140.4463  159.2091 C.2     1  UNL1        0.2718
     18 O         138.1586  139.7605  157.8786 O.2     1  UNL1       -0.2707
     19 C         137.2915  139.8080  160.3273 C.3     1  UNL1        0.2898
     20 O         137.1940  140.4938  161.6578 O.3     1  UNL1       -0.4628
     21 H         139.2384  142.1893  158.6876 H       1  UNL1        0.1565
     22 C         144.4390  140.7563  163.5792 C.3     1  UNL1        0.0970
     23 C         143.7942  139.5659  164.2253 C.3     1  UNL1        0.1279
     24 C         139.7223  139.9815  166.0952 C.ar    1  UNL1        0.1403
     25 C         138.5323  139.3323  165.4529 C.ar    1  UNL1        0.0386
     26 C         138.6996  138.5446  164.1874 C.ar    1  UNL1        0.0255
     27 C         140.0569  138.4061  163.5641 C.ar    1  UNL1        0.1190
     28 N         140.2242  137.6185  162.2985 N.ar    1  UNL1       -0.1422
     29 N         141.5815  137.4799  161.6752 N.ar    1  UNL1       -0.0896
     30 C         142.7716  138.1291  162.3175 C.ar    1  UNL1        0.3679
     31 O         144.1289  137.9906  161.6942 O.2     1  UNL1       -0.2428
     32 N         142.6043  138.9168  163.5830 N.ar    1  UNL1       -0.2757
     33 C         141.2469  139.0553  164.2063 C.ar    1  UNL1        0.0863
     34 C         141.0796  139.8429  165.4719 C.ar    1  UNL1        0.0558
     35 C         139.7952  140.1146  168.6888 C.3     1  UNL1        0.2525
     36 O         139.5550  140.7691  167.3607 O.3     1  UNL1       -0.4714
@<TRIPOS>BOND
     1    35    36    1
     2    36    24    1
     3    24    25   ar
     4    25    26   ar
     5    26    27   ar
     6    27    28   ar
     7    28    29   ar
     8    29    30   ar
     9    30    31    2
    10    30    32   ar
    11    32    23    1
    12    23    22    1
    13    22     1    1
    14     1     2    1
    15     2     3    1
    16     3     4    1
    17     4     7    1
    18     7     9    1
    19     9    10    1
    20    10    11   ar
    21    11    12   ar
    22    12    13   ar
    23    13    14   ar
    24    14    15   ar
    25    14    16    1
    26    16    17   am
    27    17    18    2
    28    17    19    1
    29    19    20    1
    30     4     5    1
    31     5     6    1
    32    32    33   ar
    33    33    34   ar
    34    34    24   ar
    35    33    27   ar
    36     6     1    1
    37    15    10   ar
    38    20    13    1
    39     7     8    1
    40    16    21    1
@<TRIPOS>MOLECULE
*****
 36 40 0 0 0
SMALL
GASTEIGER

@<TRIPOS>ATOM
      1 N         137.9236  142.9814  162.7899 N.3     1  UNL1       -0.2710
      2 C         138.0739  142.5722  161.3546 C.3     1  UNL1        0.0735
      3 C         138.0629  141.1188  160.9840 C.3     1  UNL1        0.0331
      4 C         137.9015  140.0746  162.0486 C.3     1  UNL1        0.0570
      5 C         137.7512  140.4838  163.4839 C.3     1  UNL1        0.0331
      6 C         137.7623  141.9372  163.8545 C.3     1  UNL1        0.0735
      7 N         137.8904  138.6211  161.6780 N.3     1  UNL1       -0.2934
      8 H         137.1461  138.4979  160.9916 H       1  UNL1        0.1236
      9 C         139.1205  137.9846  161.1019 C.3     1  UNL1        0.1152
     10 C         140.4613  138.2488  161.7201 C.ar    1  UNL1        0.0765
     11 C         141.6134  138.6745  160.8591 C.ar    1  UNL1        0.0193
     12 C         142.9543  138.9387  161.4772 C.ar    1  UNL1        0.0411
     13 C         143.1432  138.7773  162.9565 C.ar    1  UNL1        0.1708
     14 C         141.9910  138.3516  163.8176 C.ar    1  UNL1        0.1682
     15 N         140.6501  138.0873  163.1994 N.ar    1  UNL1       -0.2304
     16 N         142.1798  138.1901  165.2969 N.am    1  UNL1       -0.2639
     17 C         143.5208  138.4543  165.9151 C.2     1  UNL1        0.2718
     18 O         143.7096  138.2928  167.3944 O.2     1  UNL1       -0.2707
     19 C         144.6728  138.8800  165.0540 C.3     1  UNL1        0.2898
     20 O         144.4840  139.0415  163.5747 O.3     1  UNL1       -0.4628
     21 H         141.4237  137.9107  165.8621 H       1  UNL1        0.1565
     22 C         137.9347  144.4349  163.1604 C.3     1  UNL1        0.0970
     23 C         139.2345  145.1249  163.4510 C.3     1  UNL1        0.1279
     24 C         142.4753  142.6554  165.3610 C.ar    1  UNL1        0.1403
     25 C         143.7050  142.2983  164.5798 C.ar    1  UNL1        0.0386
     26 C         143.8545  142.7645  163.1619 C.ar    1  UNL1        0.0255
     27 C         142.7742  143.5876  162.5252 C.ar    1  UNL1        0.1190
     28 N         142.9237  144.0538  161.1074 N.ar    1  UNL1       -0.1422
     29 N         141.8434  144.8770  160.4707 N.ar    1  UNL1       -0.0896
     30 C         140.6136  145.2340  161.2519 C.ar    1  UNL1        0.3679
     31 O         139.5334  146.0572  160.6153 O.2     1  UNL1       -0.2428
     32 N         140.4642  144.7679  162.6698 N.ar    1  UNL1       -0.2757
     33 C         141.5445  143.9447  163.3065 C.ar    1  UNL1        0.0863
     34 C         141.3951  143.4785  164.7243 C.ar    1  UNL1        0.0558
     35 C         141.2415  141.2173  167.1385 C.3     1  UNL1        0.2525
     36 O         142.3259  142.1892  166.7789 O.3     1  UNL1       -0.4714
@<TRIPOS>BOND
     1    35    36    1
     2    36    24    1
     3    24    25   ar
     4    25    26   ar
     5    26    27   ar
     6    27    28   ar
     7    28    29   ar
     8    29    30   ar
     9    30    31    2
    10    30    32   ar
    11    32    23    1
    12    23    22    1
    13    22     1    1
    14     1     2    1
    15     2     3    1
    16     3     4    1
    17     4     7    1
    18     7     9    1
    19     9    10    1
    20    10    11   ar
    21    11    12   ar
    22    12    13   ar
    23    13    14   ar
    24    14    15   ar
    25    14    16    1
    26    16    17   am
    27    17    18    2
    28    17    19    1
    29    19    20    1
    30     4     5    1
    31     5     6    1
    32    32    33   ar
    33    33    34   ar
    34    34    24   ar
    35    33    27   ar
    36     6     1    1
    37    15    10   ar
    38    20    13    1
    39     7     8    1
    40    16    21    1
@<TRIPOS>MOLECULE
*****
 36 40 0 0 0
SMALL
GASTEIGER

@<TRIPOS>ATOM
      1 N         142.7088  144.3082  163.4820 N.3     1  UNL1       -0.2710
      2 C         141.4794  144.5272  164.3129 C.3     1  UNL1        0.0735
      3 C         140.1205  144.3772  163.6958 C.3     1  UNL1        0.0331
      4 C         139.9911  144.0082  162.2477 C.3     1  UNL1        0.0570
      5 C         141.2206  143.7892  161.4167 C.3     1  UNL1        0.0331
      6 C         142.5795  143.9392  162.0339 C.3     1  UNL1        0.0735
      7 N         138.6322  143.8581  161.6304 N.3     1  UNL1       -0.2934
      8 H         138.5638  144.5612  160.8946 H       1  UNL1        0.1236
      9 C         138.2267  142.5500  161.0185 C.3     1  UNL1        0.1152
     10 C         138.3847  141.2772  161.7962 C.ar    1  UNL1        0.0765
     11 C         138.8484  140.0290  161.1055 C.ar    1  UNL1        0.0193
     12 C         139.0064  138.7561  161.8832 C.ar    1  UNL1        0.0411
     13 C         138.7008  138.7314  163.3516 C.ar    1  UNL1        0.1708
     14 C         138.2371  139.9797  164.0422 C.ar    1  UNL1        0.1682
     15 N         138.0791  141.2525  163.2645 N.ar    1  UNL1       -0.2304
     16 N         137.9314  139.9551  165.5105 N.am    1  UNL1       -0.2639
     17 C         138.0895  138.6821  166.2882 C.2     1  UNL1        0.2718
     18 O         137.7838  138.6575  167.7565 O.2     1  UNL1       -0.2707
     19 C         138.5531  137.4339  165.5976 C.3     1  UNL1        0.2898
     20 O         138.8588  137.4586  164.1293 O.3     1  UNL1       -0.4628
     21 H         137.6271  140.7743  165.9638 H       1  UNL1        0.1565
     22 C         144.0678  144.4582  164.0993 C.3     1  UNL1        0.0970
     23 C         144.7321  143.2790  164.7460 C.3     1  UNL1        0.1279
     24 C         141.9562  141.3836  167.7379 C.ar    1  UNL1        0.1403
     25 C         141.4272  140.0004  167.4989 C.ar    1  UNL1        0.0386
     26 C         141.8236  139.2491  166.2626 C.ar    1  UNL1        0.0255
     27 C         142.7489  139.8809  165.2653 C.ar    1  UNL1        0.1190
     28 N         143.1452  139.1296  164.0290 N.ar    1  UNL1       -0.1422
     29 N         144.0705  139.7614  163.0317 N.ar    1  UNL1       -0.0896
     30 C         144.5995  141.1446  163.2707 C.ar    1  UNL1        0.3679
     31 O         145.5248  141.7764  162.2734 O.2     1  UNL1       -0.2428
     32 N         144.2031  141.8959  164.5070 N.ar    1  UNL1       -0.2757
     33 C         143.2778  141.2640  165.5043 C.ar    1  UNL1        0.0863
     34 C         142.8814  142.0154  166.7406 C.ar    1  UNL1        0.0558
     35 C         140.3730  143.0518  168.9465 C.3     1  UNL1        0.2525
     36 O         141.5598  142.1349  168.9742 O.3     1  UNL1       -0.4714
@<TRIPOS>BOND
     1    35    36    1
     2    36    24    1
     3    24    25   ar
     4    25    26   ar
     5    26    27   ar
     6    27    28   ar
     7    28    29   ar
     8    29    30   ar
     9    30    31    2
    10    30    32   ar
    11    32    23    1
    12    23    22    1
    13    22     1    1
    14     1     2    1
    15     2     3    1
    16     3     4    1
    17     4     7    1
    18     7     9    1
    19     9    10    1
    20    10    11   ar
    21    11    12   ar
    22    12    13   ar
    23    13    14   ar
    24    14    15   ar
    25    14    16    1
    26    16    17   am
    27    17    18    2
    28    17    19    1
    29    19    20    1
    30     4     5    1
    31     5     6    1
    32    32    33   ar
    33    33    34   ar
    34    34    24   ar
    35    33    27   ar
    36     6     1    1
    37    15    10   ar
    38    20    13    1
    39     7     8    1
    40    16    21    1
@<TRIPOS>MOLECULE
*****
 36 40 0 0 0
SMALL
GASTEIGER

@<TRIPOS>ATOM
      1 N         141.5794  138.6348  164.4459 N.3     1  UNL1       -0.2710
      2 C         142.7786  138.7757  165.3358 C.3     1  UNL1        0.0735
      3 C         144.0376  139.3949  164.8054 C.3     1  UNL1        0.0331
      4 C         144.0974  139.8733  163.3850 C.3     1  UNL1        0.0570
      5 C         142.8981  139.7325  162.4950 C.3     1  UNL1        0.0331
      6 C         141.6391  139.1132  163.0255 C.3     1  UNL1        0.0735
      7 N         145.3564  140.4926  162.8545 N.3     1  UNL1       -0.2934
      8 H         145.3967  140.2716  161.8595 H       1  UNL1        0.1236
      9 C         145.5750  141.9714  162.9788 C.3     1  UNL1        0.1152
     10 C         144.4020  142.9063  162.9700 C.ar    1  UNL1        0.0765
     11 C         143.9363  143.5373  164.2486 C.ar    1  UNL1        0.0193
     12 C         142.7633  144.4723  164.2398 C.ar    1  UNL1        0.0411
     13 C         142.0561  144.7761  162.9524 C.ar    1  UNL1        0.1708
     14 C         142.5218  144.1449  161.6737 C.ar    1  UNL1        0.1682
     15 N         143.6948  143.2101  161.6826 N.ar    1  UNL1       -0.2304
     16 N         141.8145  144.4488  160.3863 N.am    1  UNL1       -0.2639
     17 C         140.6415  145.3837  160.3775 C.2     1  UNL1        0.2718
     18 O         139.9342  145.6875  159.0901 O.2     1  UNL1       -0.2707
     19 C         140.1758  146.0148  161.6561 C.3     1  UNL1        0.2898
     20 O         140.8831  145.7110  162.9435 O.3     1  UNL1       -0.4628
     21 H         142.1202  144.0346  159.5471 H       1  UNL1        0.1565
     22 C         140.3203  138.0155  164.9764 C.3     1  UNL1        0.0970
     23 C         139.4476  138.7846  165.9234 C.3     1  UNL1        0.1279
     24 C         137.7203  141.4321  162.7208 C.ar    1  UNL1        0.1403
     25 C         137.8573  142.9222  162.8249 C.ar    1  UNL1        0.0386
     26 C         138.5700  143.5297  163.9966 C.ar    1  UNL1        0.0255
     27 C         139.1458  142.6473  165.0642 C.ar    1  UNL1        0.1190
     28 N         139.8585  143.2548  166.2359 N.ar    1  UNL1       -0.1422
     29 N         140.4342  142.3724  167.3034 N.ar    1  UNL1       -0.0896
     30 C         140.2973  140.8822  167.1993 C.ar    1  UNL1        0.3679
     31 O         140.8730  139.9997  168.2668 O.2     1  UNL1       -0.2428
     32 N         139.5846  140.2746  166.0276 N.ar    1  UNL1       -0.2757
     33 C         139.0088  141.1572  164.9600 C.ar    1  UNL1        0.0863
     34 C         138.2961  140.5496  163.7883 C.ar    1  UNL1        0.0558
     35 C         137.7613  139.9699  160.5736 C.3     1  UNL1        0.2525
     36 O         137.0076  140.8245  161.5491 O.3     1  UNL1       -0.4714
@<TRIPOS>BOND
     1    35    36    1
     2    36    24    1
     3    24    25   ar
     4    25    26   ar
     5    26    27   ar
     6    27    28   ar
     7    28    29   ar
     8    29    30   ar
     9    30    31    2
    10    30    32   ar
    11    32    23    1
    12    23    22    1
    13    22     1    1
    14     1     2    1
    15     2     3    1
    16     3     4    1
    17     4     7    1
    18     7     9    1
    19     9    10    1
    20    10    11   ar
    21    11    12   ar
    22    12    13   ar
    23    13    14   ar
    24    14    15   ar
    25    14    16    1
    26    16    17   am
    27    17    18    2
    28    17    19    1
    29    19    20    1
    30     4     5    1
    31     5     6    1
    32    32    33   ar
    33    33    34   ar
    34    34    24   ar
    35    33    27   ar
    36     6     1    1
    37    15    10   ar
    38    20    13    1
    39     7     8    1
    40    16    21    1
@<TRIPOS>MOLECULE
*****
 36 40 0 0 0
SMALL
GASTEIGER

@<TRIPOS>ATOM
      1 N         144.4415  139.8381  163.7148 N.3     1  UNL1       -0.2710
      2 C         143.5816  139.3724  164.8521 C.3     1  UNL1        0.0735
      3 C         142.4323  138.4442  164.5922 C.3     1  UNL1        0.0331
      4 C         142.1430  137.9817  163.1950 C.3     1  UNL1        0.0570
      5 C         143.0030  138.4474  162.0576 C.3     1  UNL1        0.0331
      6 C         144.1523  139.3756  162.3175 C.3     1  UNL1        0.0735
      7 N         140.9937  137.0534  162.9350 N.3     1  UNL1       -0.2934
      8 H         140.8570  136.5085  163.7863 H       1  UNL1        0.1236
      9 C         139.6526  137.6081  162.5559 C.3     1  UNL1        0.1152
     10 C         139.1954  138.9190  163.1238 C.ar    1  UNL1        0.0765
     11 C         138.5982  138.9731  164.4988 C.ar    1  UNL1        0.0193
     12 C         138.1410  140.2840  165.0668 C.ar    1  UNL1        0.0411
     13 C         138.2808  141.5406  164.2599 C.ar    1  UNL1        0.1708
     14 C         138.8780  141.4865  162.8849 C.ar    1  UNL1        0.1682
     15 N         139.3352  140.1756  162.3169 N.ar    1  UNL1       -0.2304
     16 N         139.0178  142.7431  162.0779 N.am    1  UNL1       -0.2639
     17 C         138.5606  144.0540  162.6459 C.2     1  UNL1        0.2718
     18 O         138.7004  145.3107  161.8390 O.2     1  UNL1       -0.2707
     19 C         137.9634  144.1081  164.0209 C.3     1  UNL1        0.2898
     20 O         137.8236  142.8515  164.8278 O.3     1  UNL1       -0.4628
     21 H         139.4097  142.7076  161.1755 H       1  UNL1        0.1565
     22 C         145.5909  140.7663  163.9748 C.3     1  UNL1        0.0970
     23 C         145.6429  142.1036  163.2973 C.3     1  UNL1        0.1279
     24 C         143.8335  142.6850  159.2183 C.ar    1  UNL1        0.1403
     25 C         142.5813  143.4957  159.0620 C.ar    1  UNL1        0.0386
     26 C         141.9321  144.1127  160.2653 C.ar    1  UNL1        0.0255
     27 C         142.5352  143.9189  161.6249 C.ar    1  UNL1        0.1190
     28 N         141.8860  144.5359  162.8282 N.ar    1  UNL1       -0.1422
     29 N         142.4891  144.3421  164.1878 N.ar    1  UNL1       -0.0896
     30 C         143.7414  143.5313  164.3443 C.ar    1  UNL1        0.3679
     31 O         144.3445  143.3376  165.7039 O.2     1  UNL1       -0.2428
     32 N         144.3906  142.9144  163.1410 N.ar    1  UNL1       -0.2757
     33 C         143.7874  143.1082  161.7813 C.ar    1  UNL1        0.0863
     34 C         144.4366  142.4912  160.5780 C.ar    1  UNL1        0.0558
     35 C         145.8647  142.4878  157.6105 C.3     1  UNL1        0.2525
     36 O         144.4827  142.0680  158.0150 O.3     1  UNL1       -0.4714
@<TRIPOS>BOND
     1    35    36    1
     2    36    24    1
     3    24    25   ar
     4    25    26   ar
     5    26    27   ar
     6    27    28   ar
     7    28    29   ar
     8    29    30   ar
     9    30    31    2
    10    30    32   ar
    11    32    23    1
    12    23    22    1
    13    22     1    1
    14     1     2    1
    15     2     3    1
    16     3     4    1
    17     4     7    1
    18     7     9    1
    19     9    10    1
    20    10    11   ar
    21    11    12   ar
    22    12    13   ar
    23    13    14   ar
    24    14    15   ar
    25    14    16    1
    26    16    17   am
    27    17    18    2
    28    17    19    1
    29    19    20    1
    30     4     5    1
    31     5     6    1
    32    32    33   ar
    33    33    34   ar
    34    34    24   ar
    35    33    27   ar
    36     6     1    1
    37    15    10   ar
    38    20    13    1
    39     7     8    1
    40    16    21    1
