@<TRIPOS>MOLECULE
*****
 43 47 0 0 0
SMALL
GASTEIGER

@<TRIPOS>ATOM
      1 C         141.8535  143.6791  159.9321 C.ar    1  UNL1        0.2394
      2 N         140.6651  143.4719  160.8235 N.ar    1  UNL1       -0.1782
      3 C         139.2857  143.4262  160.2361 C.ar    1  UNL1        0.2194
      4 N         139.0947  143.5877  158.7570 N.ar    1  UNL1       -0.2131
      5 C         140.2831  143.7948  157.8655 C.ar    1  UNL1        0.0952
      6 C         140.4045  143.9831  156.3824 C.ar    1  UNL1        0.0268
      7 C         141.8589  144.1452  156.0533 C.ar    1  UNL1        0.0372
      8 S         142.6364  144.0571  157.3330 S.2     1  UNL1       -0.0803
      9 C         141.6625  143.8405  158.4531 C.ar    1  UNL1        0.1008
     10 N         138.0973  143.2191  161.1276 N.pl3   1  UNL1       -0.3045
     11 H         137.2725  143.7348  160.9762 H       1  UNL1        0.1496
     12 C         138.1655  142.2260  162.2498 C.3     1  UNL1        0.0745
     13 C         138.2543  142.7031  163.6691 C.3     1  UNL1        0.0369
     14 C         138.3225  141.7101  164.7912 C.3     1  UNL1        0.0741
     15 N         138.3020  140.2400  164.4941 N.3     1  UNL1       -0.2689
     16 C         138.2133  139.7629  163.0748 C.3     1  UNL1        0.0741
     17 C         138.1450  140.7559  161.9526 C.3     1  UNL1        0.0369
     18 C         138.3703  139.2468  165.6162 C.3     1  UNL1        0.0991
     19 C         139.1640  139.5620  166.8493 C.ar    1  UNL1       -0.0061
     20 C         140.6512  139.7367  166.7597 C.ar    1  UNL1       -0.0015
     21 C         141.4449  140.0518  167.9928 C.ar    1  UNL1        0.0196
     22 C         140.7516  140.1922  169.3156 C.ar    1  UNL1        0.1217
     23 C         139.2645  140.0175  169.4052 C.ar    1  UNL1        0.0196
     24 C         138.4707  139.7024  168.1721 C.ar    1  UNL1       -0.0015
     25 S         141.5454  140.5074  170.5487 S.O2    1  UNL1        0.0572
     26 N         142.3391  140.8225  171.7818 N.3     1  UNL1       -0.2035
     27 O         142.8171  140.2528  169.7951 O.2     1  UNL1       -0.1532
     28 O         140.2736  140.7620  171.3022 O.2     1  UNL1       -0.1532
     29 H         143.3344  140.7307  171.5782 H       1  UNL1        0.1442
     30 H         142.0831  140.1737  172.5260 H       1  UNL1        0.1442
     31 O         143.2329  143.7248  160.5196 O.3     1  UNL1       -0.4362
     32 C         143.8445  140.9345  159.6030 C.3     1  UNL1        0.0342
     33 C         143.9654  141.2904  161.0551 C.ar    1  UNL1        0.0124
     34 C         144.3921  140.2511  162.0490 C.ar    1  UNL1       -0.0012
     35 C         144.5130  140.6070  163.5012 C.ar    1  UNL1        0.0003
     36 C         144.2072  142.0020  163.9595 C.ar    1  UNL1       -0.0012
     37 C         143.7805  143.0414  162.9656 C.ar    1  UNL1        0.0124
     38 C         143.4747  144.4365  163.4239 C.3     1  UNL1        0.0342
     39 C         143.6596  142.6855  161.5135 C.ar    1  UNL1        0.1391
     40 C         144.9397  139.5676  164.4951 C.2     1  UNL1        0.0109
     41 C         143.9312  138.9593  165.4239 C.2     1  UNL1        0.0780
     42 C         144.3579  137.9199  166.4177 C.1     1  UNL1        0.1011
     43 N         144.7847  136.8806  167.4116 N.1     1  UNL1       -0.1908
@<TRIPOS>BOND
     1    32    33    1
     2    33    34   ar
     3    34    35   ar
     4    35    40    1
     5    40    41    2
     6    41    42    1
     7    42    43    3
     8    35    36   ar
     9    36    37   ar
    10    37    38    1
    11    37    39   ar
    12    39    31    1
    13    31     1    1
    14     1     2   ar
    15     2     3   ar
    16     3    10    1
    17    10    12    1
    18    12    13    1
    19    13    14    1
    20    14    15    1
    21    15    18    1
    22    18    19    1
    23    19    20   ar
    24    20    21   ar
    25    21    22   ar
    26    22    25    1
    27    25    26    1
    28    25    27    2
    29    25    28    2
    30    22    23   ar
    31    23    24   ar
    32    15    16    1
    33    16    17    1
    34     3     4   ar
    35     4     5   ar
    36     5     6   ar
    37     6     7   ar
    38     7     8   ar
    39     8     9   ar
    40    39    33   ar
    41     9     1   ar
    42    17    12    1
    43     9     5   ar
    44    24    19   ar
    45    10    11    1
    46    26    29    1
    47    26    30    1
@<TRIPOS>MOLECULE
*****
 43 47 0 0 0
SMALL
GASTEIGER

@<TRIPOS>ATOM
      1 C         141.6226  143.8752  160.0123 C.ar    1  UNL1        0.2394
      2 N         140.5612  143.0438  160.6695 N.ar    1  UNL1       -0.1782
      3 C         139.2080  142.9168  160.0351 C.ar    1  UNL1        0.2194
      4 N         138.9161  143.6213  158.7433 N.ar    1  UNL1       -0.2131
      5 C         139.9776  144.4527  158.0861 C.ar    1  UNL1        0.0952
      6 C         139.9820  145.2568  156.8198 C.ar    1  UNL1        0.0268
      7 C         141.3380  145.8807  156.6718 C.ar    1  UNL1        0.0372
      8 S         142.1717  145.4623  157.8465 S.2     1  UNL1       -0.0803
      9 C         141.3309  144.5797  158.7206 C.ar    1  UNL1        0.1008
     10 N         138.1464  142.0854  160.6924 N.pl3   1  UNL1       -0.3045
     11 H         137.3000  141.9065  160.2225 H       1  UNL1        0.1496
     12 C         138.3746  141.5265  162.0656 C.3     1  UNL1        0.0745
     13 C         139.0391  140.1920  162.2313 C.3     1  UNL1        0.0369
     14 C         139.2673  139.6331  163.6045 C.3     1  UNL1        0.0741
     15 N         138.8309  140.4088  164.8120 N.3     1  UNL1       -0.2689
     16 C         138.1664  141.7433  164.6462 C.3     1  UNL1        0.0741
     17 C         137.9382  142.3022  163.2730 C.3     1  UNL1        0.0369
     18 C         139.0591  139.8500  166.1852 C.3     1  UNL1        0.0991
     19 C         139.9302  140.5864  167.1593 C.ar    1  UNL1       -0.0061
     20 C         141.1174  141.3603  166.6675 C.ar    1  UNL1       -0.0015
     21 C         141.9884  142.0966  167.6416 C.ar    1  UNL1        0.0196
     22 C         141.6724  142.0592  169.1075 C.ar    1  UNL1        0.1217
     23 C         140.4852  141.2854  169.5993 C.ar    1  UNL1        0.0196
     24 C         139.6141  140.5490  168.6252 C.ar    1  UNL1       -0.0015
     25 S         142.5435  142.7956  170.0816 S.O2    1  UNL1        0.0572
     26 N         143.4146  143.5320  171.0557 N.3     1  UNL1       -0.2035
     27 O         143.6729  142.7647  169.0949 O.2     1  UNL1       -0.1532
     28 O         141.4141  142.8265  171.0683 O.2     1  UNL1       -0.1532
     29 H         144.3361  143.6791  170.6439 H       1  UNL1        0.1442
     30 H         143.5078  142.9835  171.9106 H       1  UNL1        0.1442
     31 O         142.9759  144.0022  160.6468 O.3     1  UNL1       -0.4362
     32 C         143.8071  141.2536  159.7781 C.3     1  UNL1        0.0342
     33 C         143.8392  141.6225  161.2316 C.ar    1  UNL1        0.0124
     34 C         144.2870  140.6172  162.2509 C.ar    1  UNL1       -0.0012
     35 C         144.3192  140.9862  163.7045 C.ar    1  UNL1        0.0003
     36 C         143.9036  142.3604  164.1388 C.ar    1  UNL1       -0.0012
     37 C         143.4558  143.3658  163.1196 C.ar    1  UNL1        0.0124
     38 C         143.0403  144.7400  163.5539 C.3     1  UNL1        0.0342
     39 C         143.4237  142.9968  161.6660 C.ar    1  UNL1        0.1391
     40 C         144.7670  139.9808  164.7237 C.2     1  UNL1        0.0109
     41 C         143.7751  139.0300  165.3253 C.2     1  UNL1        0.0780
     42 C         144.2229  138.0246  166.3446 C.1     1  UNL1        0.1011
     43 N         144.6707  137.0193  167.3637 N.1     1  UNL1       -0.1908
@<TRIPOS>BOND
     1    32    33    1
     2    33    34   ar
     3    34    35   ar
     4    35    40    1
     5    40    41    2
     6    41    42    1
     7    42    43    3
     8    35    36   ar
     9    36    37   ar
    10    37    38    1
    11    37    39   ar
    12    39    31    1
    13    31     1    1
    14     1     2   ar
    15     2     3   ar
    16     3    10    1
    17    10    12    1
    18    12    13    1
    19    13    14    1
    20    14    15    1
    21    15    18    1
    22    18    19    1
    23    19    20   ar
    24    20    21   ar
    25    21    22   ar
    26    22    25    1
    27    25    26    1
    28    25    27    2
    29    25    28    2
    30    22    23   ar
    31    23    24   ar
    32    15    16    1
    33    16    17    1
    34     3     4   ar
    35     4     5   ar
    36     5     6   ar
    37     6     7   ar
    38     7     8   ar
    39     8     9   ar
    40    39    33   ar
    41     9     1   ar
    42    17    12    1
    43     9     5   ar
    44    24    19   ar
    45    10    11    1
    46    26    29    1
    47    26    30    1
@<TRIPOS>MOLECULE
*****
 43 47 0 0 0
SMALL
GASTEIGER

@<TRIPOS>ATOM
      1 C         140.5896  138.4722  159.4923 C.ar    1  UNL1        0.2394
      2 N         141.7630  138.7713  160.3775 N.ar    1  UNL1       -0.1782
      3 C         143.1545  138.7257  159.8194 C.ar    1  UNL1        0.2194
      4 N         143.3727  138.3811  158.3759 N.ar    1  UNL1       -0.2131
      5 C         142.1994  138.0819  157.4906 C.ar    1  UNL1        0.0952
      6 C         142.1050  137.7144  156.0394 C.ar    1  UNL1        0.0268
      7 C         140.6550  137.5328  155.7007 C.ar    1  UNL1        0.0372
      8 S         139.8534  137.7881  156.9426 S.2     1  UNL1       -0.0803
      9 C         140.8078  138.1275  158.0488 C.ar    1  UNL1        0.1008
     10 N         144.3279  139.0249  160.7048 N.pl3   1  UNL1       -0.3045
     11 H         145.2319  138.7426  160.4360 H       1  UNL1        0.1496
     12 C         144.1238  139.7541  161.9996 C.3     1  UNL1        0.0745
     13 C         143.8483  138.9854  163.2579 C.3     1  UNL1        0.0369
     14 C         143.6442  139.7146  164.5528 C.3     1  UNL1        0.0741
     15 N         143.7156  141.2124  164.5894 N.3     1  UNL1       -0.2689
     16 C         143.9911  141.9811  163.3311 C.3     1  UNL1        0.0741
     17 C         144.1952  141.2519  162.0362 C.3     1  UNL1        0.0369
     18 C         143.5115  141.9417  165.8842 C.3     1  UNL1        0.0991
     19 C         142.4190  141.5168  166.8201 C.ar    1  UNL1       -0.0061
     20 C         142.7425  141.1736  168.2441 C.ar    1  UNL1       -0.0015
     21 C         141.6500  140.7488  169.1798 C.ar    1  UNL1        0.0196
     22 C         140.2340  140.6671  168.6918 C.ar    1  UNL1        0.1217
     23 C         139.9105  141.0103  167.2679 C.ar    1  UNL1        0.0196
     24 C         141.0030  141.4352  166.3320 C.ar    1  UNL1       -0.0015
     25 S         139.1415  140.2422  169.6277 S.O2    1  UNL1        0.0572
     26 N         138.0490  139.8173  170.5636 N.3     1  UNL1       -0.2035
     27 O         139.8023  140.9980  170.7422 O.2     1  UNL1       -0.1532
     28 O         138.4807  139.4864  168.5132 O.2     1  UNL1       -0.1532
     29 H         138.2250  140.2056  171.4902 H       1  UNL1        0.1442
     30 H         138.0266  138.7991  170.6201 H       1  UNL1        0.1442
     31 O         139.1981  138.5177  160.0504 O.3     1  UNL1       -0.4362
     32 C         139.2265  137.7592  162.9528 C.3     1  UNL1        0.0342
     33 C         138.8560  139.1545  162.5459 C.ar    1  UNL1        0.0124
     34 C         138.4997  140.1707  163.5902 C.ar    1  UNL1       -0.0012
     35 C         138.1291  141.5661  163.1832 C.ar    1  UNL1        0.0003
     36 C         138.1149  141.9454  161.7321 C.ar    1  UNL1       -0.0012
     37 C         138.4713  140.9292  160.6877 C.ar    1  UNL1        0.0124
     38 C         138.4570  141.3085  159.2366 C.3     1  UNL1        0.0342
     39 C         138.8418  139.5339  161.0947 C.ar    1  UNL1        0.1391
     40 C         137.7728  142.5823  164.2276 C.2     1  UNL1        0.0109
     41 C         138.6787  143.7516  164.4761 C.2     1  UNL1        0.0780
     42 C         138.3224  144.7677  165.5204 C.1     1  UNL1        0.1011
     43 N         137.9661  145.7838  166.5648 N.1     1  UNL1       -0.1908
@<TRIPOS>BOND
     1    32    33    1
     2    33    34   ar
     3    34    35   ar
     4    35    40    1
     5    40    41    2
     6    41    42    1
     7    42    43    3
     8    35    36   ar
     9    36    37   ar
    10    37    38    1
    11    37    39   ar
    12    39    31    1
    13    31     1    1
    14     1     2   ar
    15     2     3   ar
    16     3    10    1
    17    10    12    1
    18    12    13    1
    19    13    14    1
    20    14    15    1
    21    15    18    1
    22    18    19    1
    23    19    20   ar
    24    20    21   ar
    25    21    22   ar
    26    22    25    1
    27    25    26    1
    28    25    27    2
    29    25    28    2
    30    22    23   ar
    31    23    24   ar
    32    15    16    1
    33    16    17    1
    34     3     4   ar
    35     4     5   ar
    36     5     6   ar
    37     6     7   ar
    38     7     8   ar
    39     8     9   ar
    40    39    33   ar
    41     9     1   ar
    42    17    12    1
    43     9     5   ar
    44    24    19   ar
    45    10    11    1
    46    26    29    1
    47    26    30    1
@<TRIPOS>MOLECULE
*****
 43 47 0 0 0
SMALL
GASTEIGER

@<TRIPOS>ATOM
      1 C         140.1528  138.7908  158.8827 C.ar    1  UNL1        0.2394
      2 N         141.2140  139.0991  159.8969 N.ar    1  UNL1       -0.1782
      3 C         142.6163  138.6095  159.6877 C.ar    1  UNL1        0.2194
      4 N         142.9574  137.8116  158.4641 N.ar    1  UNL1       -0.2131
      5 C         141.8962  137.5034  157.4498 C.ar    1  UNL1        0.0952
      6 C         141.9342  136.7448  156.1564 C.ar    1  UNL1        0.0268
      7 C         140.5554  136.7656  155.5662 C.ar    1  UNL1        0.0372
      8 S         139.6652  137.5370  156.4949 S.2     1  UNL1       -0.0803
      9 C         140.4939  137.9930  157.6591 C.ar    1  UNL1        0.1008
     10 N         143.6775  138.9177  160.7021 N.pl3   1  UNL1       -0.3045
     11 H         144.5470  138.4578  160.6601 H       1  UNL1        0.1496
     12 C         143.4140  139.9267  161.7803 C.3     1  UNL1        0.0745
     13 C         143.5524  141.3912  161.4872 C.3     1  UNL1        0.0369
     14 C         143.2889  142.4001  162.5654 C.3     1  UNL1        0.0741
     15 N         142.8869  141.9445  163.9369 N.3     1  UNL1       -0.2689
     16 C         142.7484  140.4800  164.2300 C.3     1  UNL1        0.0741
     17 C         143.0120  139.4710  163.1518 C.3     1  UNL1        0.0369
     18 C         142.6233  142.9534  165.0152 C.3     1  UNL1        0.0991
     19 C         142.2405  142.4970  166.3918 C.ar    1  UNL1       -0.0061
     20 C         143.2997  142.2803  167.4318 C.ar    1  UNL1       -0.0015
     21 C         142.9168  141.8239  168.8083 C.ar    1  UNL1        0.0196
     22 C         141.4749  141.5841  169.1451 C.ar    1  UNL1        0.1217
     23 C         140.4158  141.8008  168.1053 C.ar    1  UNL1        0.0196
     24 C         140.7986  142.2572  166.7286 C.ar    1  UNL1       -0.0015
     25 S         141.0921  141.1277  170.5217 S.O2    1  UNL1        0.0572
     26 N         140.7093  140.6713  171.8984 N.3     1  UNL1       -0.2035
     27 O         140.7923  139.7596  169.9848 O.2     1  UNL1       -0.1532
     28 O         141.3919  142.4959  171.0587 O.2     1  UNL1       -0.1532
     29 H         140.4303  139.6908  171.8662 H       1  UNL1        0.1442
     30 H         139.9308  141.2353  172.2393 H       1  UNL1        0.1442
     31 O         138.7505  139.2805  159.0919 O.3     1  UNL1       -0.4362
     32 C         138.9417  142.2516  158.7234 C.3     1  UNL1        0.0342
     33 C         138.5354  141.6852  160.0516 C.ar    1  UNL1        0.0124
     34 C         138.2248  142.6043  161.1956 C.ar    1  UNL1       -0.0012
     35 C         137.8186  142.0378  162.5239 C.ar    1  UNL1        0.0003
     36 C         137.7230  140.5523  162.7081 C.ar    1  UNL1       -0.0012
     37 C         138.0336  139.6331  161.5641 C.ar    1  UNL1        0.0124
     38 C         137.9380  138.1476  161.7483 C.3     1  UNL1        0.0342
     39 C         138.4398  140.1996  160.2359 C.ar    1  UNL1        0.1391
     40 C         137.5079  142.9570  163.6679 C.2     1  UNL1        0.0109
     41 C         138.5743  143.8576  164.2171 C.2     1  UNL1        0.0780
     42 C         138.2636  144.7769  165.3611 C.1     1  UNL1        0.1011
     43 N         137.9530  145.6961  166.5050 N.1     1  UNL1       -0.1908
@<TRIPOS>BOND
     1    32    33    1
     2    33    34   ar
     3    34    35   ar
     4    35    40    1
     5    40    41    2
     6    41    42    1
     7    42    43    3
     8    35    36   ar
     9    36    37   ar
    10    37    38    1
    11    37    39   ar
    12    39    31    1
    13    31     1    1
    14     1     2   ar
    15     2     3   ar
    16     3    10    1
    17    10    12    1
    18    12    13    1
    19    13    14    1
    20    14    15    1
    21    15    18    1
    22    18    19    1
    23    19    20   ar
    24    20    21   ar
    25    21    22   ar
    26    22    25    1
    27    25    26    1
    28    25    27    2
    29    25    28    2
    30    22    23   ar
    31    23    24   ar
    32    15    16    1
    33    16    17    1
    34     3     4   ar
    35     4     5   ar
    36     5     6   ar
    37     6     7   ar
    38     7     8   ar
    39     8     9   ar
    40    39    33   ar
    41     9     1   ar
    42    17    12    1
    43     9     5   ar
    44    24    19   ar
    45    10    11    1
    46    26    29    1
    47    26    30    1
@<TRIPOS>MOLECULE
*****
 43 47 0 0 0
SMALL
GASTEIGER

@<TRIPOS>ATOM
      1 C         143.1234  140.3004  158.9863 C.ar    1  UNL1        0.2394
      2 N         142.9538  141.3054  160.0868 N.ar    1  UNL1       -0.1782
      3 C         143.4920  142.6957  159.9223 C.ar    1  UNL1        0.2194
      4 N         144.1999  143.0812  158.6571 N.ar    1  UNL1       -0.2131
      5 C         144.3694  142.0761  157.5566 C.ar    1  UNL1        0.0952
      6 C         145.0176  142.1656  156.2069 C.ar    1  UNL1        0.0268
      7 C         144.8799  140.8304  155.5372 C.ar    1  UNL1        0.0372
      8 S         144.1467  139.9158  156.4731 S.2     1  UNL1       -0.0803
      9 C         143.8312  140.6857  157.7212 C.ar    1  UNL1        0.1008
     10 N         143.3224  143.7008  161.0228 N.pl3   1  UNL1       -0.3045
     11 H         143.8274  144.5456  161.0001 H       1  UNL1        0.1496
     12 C         142.3832  143.4187  162.1579 C.3     1  UNL1        0.0745
     13 C         140.9010  143.5021  161.9435 C.3     1  UNL1        0.0369
     14 C         139.9619  143.2201  163.0786 C.3     1  UNL1        0.0741
     15 N         140.5050  142.8546  164.4282 N.3     1  UNL1       -0.2689
     16 C         141.9872  142.7712  164.6427 C.3     1  UNL1        0.0741
     17 C         142.9263  143.0533  163.5075 C.3     1  UNL1        0.0369
     18 C         139.5659  142.5725  165.5634 C.3     1  UNL1        0.0991
     19 C         140.1086  142.1830  166.9064 C.ar    1  UNL1       -0.0061
     20 C         140.2875  143.2223  167.9732 C.ar    1  UNL1       -0.0015
     21 C         140.8301  142.8328  169.3162 C.ar    1  UNL1        0.0196
     22 C         141.1939  141.4041  169.5926 C.ar    1  UNL1        0.1217
     23 C         141.0150  140.3648  168.5258 C.ar    1  UNL1        0.0196
     24 C         140.4724  140.7543  167.1828 C.ar    1  UNL1       -0.0015
     25 S         141.7366  141.0146  170.9356 S.O2    1  UNL1        0.0572
     26 N         142.2792  140.6251  172.2787 N.3     1  UNL1       -0.2035
     27 O         140.7459  141.9243  171.5997 O.2     1  UNL1       -0.1532
     28 O         142.7272  140.1049  170.2715 O.2     1  UNL1       -0.1532
     29 H         141.7671  141.1201  173.0088 H       1  UNL1        0.1442
     30 H         143.2678  140.8711  172.3303 H       1  UNL1        0.1442
     31 O         142.5852  138.9100  159.1509 O.3     1  UNL1       -0.4362
     32 C         143.8388  138.0009  161.7204 C.3     1  UNL1        0.0342
     33 C         142.3473  138.1206  161.6147 C.ar    1  UNL1        0.0124
     34 C         141.4826  137.7858  162.7937 C.ar    1  UNL1       -0.0012
     35 C         139.9910  137.9055  162.6880 C.ar    1  UNL1        0.0003
     36 C         139.3643  138.3600  161.4034 C.ar    1  UNL1       -0.0012
     37 C         140.2290  138.6949  160.2242 C.ar    1  UNL1        0.0124
     38 C         139.6022  139.1494  158.9396 C.3     1  UNL1        0.0342
     39 C         141.7204  138.5751  160.3300 C.ar    1  UNL1        0.1391
     40 C         139.1263  137.5706  163.8672 C.2     1  UNL1        0.0109
     41 C         138.9204  138.5805  164.9570 C.2     1  UNL1        0.0780
     42 C         138.0557  138.2456  166.1361 C.1     1  UNL1        0.1011
     43 N         137.1911  137.9108  167.3152 N.1     1  UNL1       -0.1908
@<TRIPOS>BOND
     1    32    33    1
     2    33    34   ar
     3    34    35   ar
     4    35    40    1
     5    40    41    2
     6    41    42    1
     7    42    43    3
     8    35    36   ar
     9    36    37   ar
    10    37    38    1
    11    37    39   ar
    12    39    31    1
    13    31     1    1
    14     1     2   ar
    15     2     3   ar
    16     3    10    1
    17    10    12    1
    18    12    13    1
    19    13    14    1
    20    14    15    1
    21    15    18    1
    22    18    19    1
    23    19    20   ar
    24    20    21   ar
    25    21    22   ar
    26    22    25    1
    27    25    26    1
    28    25    27    2
    29    25    28    2
    30    22    23   ar
    31    23    24   ar
    32    15    16    1
    33    16    17    1
    34     3     4   ar
    35     4     5   ar
    36     5     6   ar
    37     6     7   ar
    38     7     8   ar
    39     8     9   ar
    40    39    33   ar
    41     9     1   ar
    42    17    12    1
    43     9     5   ar
    44    24    19   ar
    45    10    11    1
    46    26    29    1
    47    26    30    1
@<TRIPOS>MOLECULE
*****
 43 47 0 0 0
SMALL
GASTEIGER

@<TRIPOS>ATOM
      1 C         140.5420  143.8189  159.4267 C.ar    1  UNL1        0.2394
      2 N         141.6439  143.1618  160.2039 N.ar    1  UNL1       -0.1782
      3 C         143.0506  143.1943  159.6844 C.ar    1  UNL1        0.2194
      4 N         143.3556  143.8839  158.3876 N.ar    1  UNL1       -0.2131
      5 C         142.2537  144.5410  157.6104 C.ar    1  UNL1        0.0952
      6 C         142.2508  145.2905  156.3111 C.ar    1  UNL1        0.0268
      7 C         140.8422  145.7212  156.0277 C.ar    1  UNL1        0.0372
      8 S         139.9745  145.2379  157.1518 S.2     1  UNL1       -0.0803
      9 C         140.8469  144.5085  158.1300 C.ar    1  UNL1        0.1008
     10 N         144.1526  142.5372  160.4616 N.pl3   1  UNL1       -0.3045
     11 H         145.0792  142.5766  160.1313 H       1  UNL1        0.1496
     12 C         143.8427  141.8200  161.7421 C.3     1  UNL1        0.0745
     13 C         142.8107  140.7316  161.7614 C.3     1  UNL1        0.0369
     14 C         142.5008  140.0145  163.0419 C.3     1  UNL1        0.0741
     15 N         143.2230  140.3856  164.3031 N.3     1  UNL1       -0.2689
     16 C         144.2550  141.4740  164.2838 C.3     1  UNL1        0.0741
     17 C         144.5649  142.1912  163.0033 C.3     1  UNL1        0.0369
     18 C         142.9132  139.6685  165.5836 C.3     1  UNL1        0.0991
     19 C         142.1940  140.3838  166.6887 C.ar    1  UNL1       -0.0061
     20 C         142.2522  139.8508  168.0897 C.ar    1  UNL1       -0.0015
     21 C         141.5330  140.5661  169.1946 C.ar    1  UNL1        0.0196
     22 C         140.7555  141.8144  168.8987 C.ar    1  UNL1        0.1217
     23 C         140.6973  142.3473  167.4978 C.ar    1  UNL1        0.0196
     24 C         141.4165  141.6320  166.3928 C.ar    1  UNL1       -0.0015
     25 S         140.0363  142.5296  170.0037 S.O2    1  UNL1        0.0572
     26 N         139.3171  143.2449  171.1087 N.3     1  UNL1       -0.2035
     27 O         140.7459  143.8009  169.6427 O.2     1  UNL1       -0.1532
     28 O         139.3267  141.2584  170.3647 O.2     1  UNL1       -0.1532
     29 H         139.6090  144.2221  171.1278 H       1  UNL1        0.1442
     30 H         139.5421  142.8054  172.0013 H       1  UNL1        0.1442
     31 O         139.1353  143.7864  159.9463 O.3     1  UNL1       -0.4362
     32 C         139.2677  145.3192  162.5219 C.3     1  UNL1        0.0342
     33 C         138.8971  143.8657  162.5322 C.ar    1  UNL1        0.0124
     34 C         138.5927  143.1786  163.8303 C.ar    1  UNL1       -0.0012
     35 C         138.2221  141.7250  163.8407 C.ar    1  UNL1        0.0003
     36 C         138.1558  140.9588  162.5530 C.ar    1  UNL1       -0.0012
     37 C         138.4603  141.6459  161.2548 C.ar    1  UNL1        0.0124
     38 C         138.3940  140.8796  159.9671 C.3     1  UNL1        0.0342
     39 C         138.8309  143.0993  161.2444 C.ar    1  UNL1        0.1391
     40 C         137.9177  141.0379  165.1389 C.2     1  UNL1        0.0109
     41 C         138.0972  139.5539  165.2621 C.2     1  UNL1        0.0780
     42 C         137.7928  138.8668  166.5603 C.1     1  UNL1        0.1011
     43 N         137.4883  138.1796  167.8585 N.1     1  UNL1       -0.1908
@<TRIPOS>BOND
     1    32    33    1
     2    33    34   ar
     3    34    35   ar
     4    35    40    1
     5    40    41    2
     6    41    42    1
     7    42    43    3
     8    35    36   ar
     9    36    37   ar
    10    37    38    1
    11    37    39   ar
    12    39    31    1
    13    31     1    1
    14     1     2   ar
    15     2     3   ar
    16     3    10    1
    17    10    12    1
    18    12    13    1
    19    13    14    1
    20    14    15    1
    21    15    18    1
    22    18    19    1
    23    19    20   ar
    24    20    21   ar
    25    21    22   ar
    26    22    25    1
    27    25    26    1
    28    25    27    2
    29    25    28    2
    30    22    23   ar
    31    23    24   ar
    32    15    16    1
    33    16    17    1
    34     3     4   ar
    35     4     5   ar
    36     5     6   ar
    37     6     7   ar
    38     7     8   ar
    39     8     9   ar
    40    39    33   ar
    41     9     1   ar
    42    17    12    1
    43     9     5   ar
    44    24    19   ar
    45    10    11    1
    46    26    29    1
    47    26    30    1
@<TRIPOS>MOLECULE
*****
 43 47 0 0 0
SMALL
GASTEIGER

@<TRIPOS>ATOM
      1 C         141.7239  140.7471  167.2110 C.ar    1  UNL1        0.2394
      2 N         140.5902  140.2895  166.3420 N.ar    1  UNL1       -0.1782
      3 C         139.3159  139.8033  166.9661 C.ar    1  UNL1        0.2194
      4 N         139.1752  139.7746  168.4593 N.ar    1  UNL1       -0.2131
      5 C         140.3090  140.2322  169.3282 C.ar    1  UNL1        0.0952
      6 C         140.4604  140.3175  170.8181 C.ar    1  UNL1        0.0268
      7 C         141.8285  140.8564  171.1148 C.ar    1  UNL1        0.0372
      8 S         142.5225  141.1043  169.8083 S.2     1  UNL1       -0.0803
      9 C         141.5833  140.7185  168.7041 C.ar    1  UNL1        0.1008
     10 N         138.1820  139.3456  166.0970 N.pl3   1  UNL1       -0.3045
     11 H         137.4476  138.8165  166.4842 H       1  UNL1        0.1496
     12 C         138.1672  139.6942  164.6382 C.3     1  UNL1        0.0745
     13 C         137.6963  141.0478  164.1952 C.3     1  UNL1        0.0369
     14 C         137.6815  141.3964  162.7364 C.3     1  UNL1        0.0741
     15 N         138.1377  140.3915  161.7205 N.3     1  UNL1       -0.2689
     16 C         138.6086  139.0379  162.1634 C.3     1  UNL1        0.0741
     17 C         138.6234  138.6893  163.6223 C.3     1  UNL1        0.0369
     18 C         138.1229  140.7400  160.2616 C.3     1  UNL1        0.0991
     19 C         138.9954  141.8458  159.7458 C.ar    1  UNL1       -0.0061
     20 C         140.1846  142.2960  160.5416 C.ar    1  UNL1       -0.0015
     21 C         141.0570  143.4018  160.0258 C.ar    1  UNL1        0.0196
     22 C         140.7403  144.0574  158.7144 C.ar    1  UNL1        0.1217
     23 C         139.5511  143.6073  157.9187 C.ar    1  UNL1        0.0196
     24 C         138.6787  142.5015  158.4344 C.ar    1  UNL1       -0.0015
     25 S         141.6128  145.1633  158.1987 S.O2    1  UNL1        0.0572
     26 N         142.4852  146.2691  157.6830 N.3     1  UNL1       -0.2035
     27 O         140.3946  145.9892  157.9090 O.2     1  UNL1       -0.1532
     28 O         142.8309  144.3373  158.4884 O.2     1  UNL1       -0.1532
     29 H         141.9020  147.0493  157.3804 H       1  UNL1        0.1442
     30 H         143.0344  145.9289  156.8936 H       1  UNL1        0.1442
     31 O         142.9983  141.2334  166.5869 O.3     1  UNL1       -0.4362
     32 C         144.0479  138.5182  165.8613 C.3     1  UNL1        0.0342
     33 C         143.8299  139.5482  164.7929 C.ar    1  UNL1        0.0124
     34 C         144.1367  139.2206  163.3616 C.ar    1  UNL1       -0.0012
     35 C         143.9188  140.2506  162.2931 C.ar    1  UNL1        0.0003
     36 C         143.3940  141.6081  162.6558 C.ar    1  UNL1       -0.0012
     37 C         143.0872  141.9358  164.0872 C.ar    1  UNL1        0.0124
     38 C         142.5624  143.2933  164.4499 C.3     1  UNL1        0.0342
     39 C         143.3051  140.9058  165.1556 C.ar    1  UNL1        0.1391
     40 C         144.2256  139.9230  160.8618 C.2     1  UNL1        0.0109
     41 C         143.1373  139.9739  159.8308 C.2     1  UNL1        0.0780
     42 C         143.4442  139.6463  158.3995 C.1     1  UNL1        0.1011
     43 N         143.7510  139.3186  156.9682 N.1     1  UNL1       -0.1908
@<TRIPOS>BOND
     1    32    33    1
     2    33    34   ar
     3    34    35   ar
     4    35    40    1
     5    40    41    2
     6    41    42    1
     7    42    43    3
     8    35    36   ar
     9    36    37   ar
    10    37    38    1
    11    37    39   ar
    12    39    31    1
    13    31     1    1
    14     1     2   ar
    15     2     3   ar
    16     3    10    1
    17    10    12    1
    18    12    13    1
    19    13    14    1
    20    14    15    1
    21    15    18    1
    22    18    19    1
    23    19    20   ar
    24    20    21   ar
    25    21    22   ar
    26    22    25    1
    27    25    26    1
    28    25    27    2
    29    25    28    2
    30    22    23   ar
    31    23    24   ar
    32    15    16    1
    33    16    17    1
    34     3     4   ar
    35     4     5   ar
    36     5     6   ar
    37     6     7   ar
    38     7     8   ar
    39     8     9   ar
    40    39    33   ar
    41     9     1   ar
    42    17    12    1
    43     9     5   ar
    44    24    19   ar
    45    10    11    1
    46    26    29    1
    47    26    30    1
@<TRIPOS>MOLECULE
*****
 43 47 0 0 0
SMALL
GASTEIGER

@<TRIPOS>ATOM
      1 C         140.3151  142.0007  166.9065 C.ar    1  UNL1        0.2394
      2 N         139.6570  141.0066  165.9962 N.ar    1  UNL1       -0.1782
      3 C         139.0223  139.7730  166.5663 C.ar    1  UNL1        0.2194
      4 N         139.0455  139.5334  168.0470 N.ar    1  UNL1       -0.2131
      5 C         139.7036  140.5275  168.9573 C.ar    1  UNL1        0.0952
      6 C         139.8815  140.5605  170.4463 C.ar    1  UNL1        0.0268
      7 C         140.6262  141.8146  170.7964 C.ar    1  UNL1        0.0372
      8 S         140.9086  142.5566  169.5237 S.2     1  UNL1       -0.0803
      9 C         140.3383  141.7611  168.3871 C.ar    1  UNL1        0.1008
     10 N         138.3642  138.7788  165.6559 N.pl3   1  UNL1       -0.3045
     11 H         137.6910  138.1552  166.0125 H       1  UNL1        0.1496
     12 C         138.7319  138.7349  164.2023 C.3     1  UNL1        0.0745
     13 C         139.8355  137.8331  163.7348 C.3     1  UNL1        0.0369
     14 C         140.2032  137.7891  162.2812 C.3     1  UNL1        0.0741
     15 N         139.4672  138.6471  161.2952 N.3     1  UNL1       -0.2689
     16 C         138.3636  139.5490  161.7627 C.3     1  UNL1        0.0741
     17 C         137.9959  139.5929  163.2163 C.3     1  UNL1        0.0369
     18 C         139.8348  138.6033  159.8415 C.3     1  UNL1        0.0991
     19 C         140.9998  139.4029  159.3382 C.ar    1  UNL1       -0.0061
     20 C         141.9856  138.7797  158.3947 C.ar    1  UNL1       -0.0015
     21 C         143.1505  139.5794  157.8914 C.ar    1  UNL1        0.0196
     22 C         143.3297  141.0022  158.3314 C.ar    1  UNL1        0.1217
     23 C         142.3440  141.6253  159.2748 C.ar    1  UNL1        0.0196
     24 C         141.1790  140.8257  159.7782 C.ar    1  UNL1       -0.0015
     25 S         144.4947  141.8018  157.8280 S.O2    1  UNL1        0.0572
     26 N         145.6597  142.6014  157.3247 N.3     1  UNL1       -0.2035
     27 O         143.8639  143.0549  158.3588 O.2     1  UNL1       -0.1532
     28 O         145.1255  140.5487  157.2973 O.2     1  UNL1       -0.1532
     29 H         145.5193  143.5861  157.5508 H       1  UNL1        0.1442
     30 H         145.7354  142.4923  156.3133 H       1  UNL1        0.1442
     31 O         140.9498  143.2343  166.3363 O.3     1  UNL1       -0.4362
     32 C         142.8902  142.2644  164.2639 C.3     1  UNL1        0.0342
     33 C         141.7133  143.1004  163.8565 C.ar    1  UNL1        0.0124
     34 C         141.5065  143.4514  162.4129 C.ar    1  UNL1       -0.0012
     35 C         140.3296  144.2875  162.0055 C.ar    1  UNL1        0.0003
     36 C         139.3595  144.7724  163.0416 C.ar    1  UNL1       -0.0012
     37 C         139.5662  144.4214  164.4853 C.ar    1  UNL1        0.0124
     38 C         138.5961  144.9064  165.5214 C.3     1  UNL1        0.0342
     39 C         140.7431  143.5854  164.8927 C.ar    1  UNL1        0.1391
     40 C         140.1229  144.6385  160.5618 C.2     1  UNL1        0.0109
     41 C         141.2468  145.2334  159.7663 C.2     1  UNL1        0.0780
     42 C         141.0401  145.5844  158.3226 C.1     1  UNL1        0.1011
     43 N         140.8333  145.9355  156.8790 N.1     1  UNL1       -0.1908
@<TRIPOS>BOND
     1    32    33    1
     2    33    34   ar
     3    34    35   ar
     4    35    40    1
     5    40    41    2
     6    41    42    1
     7    42    43    3
     8    35    36   ar
     9    36    37   ar
    10    37    38    1
    11    37    39   ar
    12    39    31    1
    13    31     1    1
    14     1     2   ar
    15     2     3   ar
    16     3    10    1
    17    10    12    1
    18    12    13    1
    19    13    14    1
    20    14    15    1
    21    15    18    1
    22    18    19    1
    23    19    20   ar
    24    20    21   ar
    25    21    22   ar
    26    22    25    1
    27    25    26    1
    28    25    27    2
    29    25    28    2
    30    22    23   ar
    31    23    24   ar
    32    15    16    1
    33    16    17    1
    34     3     4   ar
    35     4     5   ar
    36     5     6   ar
    37     6     7   ar
    38     7     8   ar
    39     8     9   ar
    40    39    33   ar
    41     9     1   ar
    42    17    12    1
    43     9     5   ar
    44    24    19   ar
    45    10    11    1
    46    26    29    1
    47    26    30    1
@<TRIPOS>MOLECULE
*****
 43 47 0 0 0
SMALL
GASTEIGER

@<TRIPOS>ATOM
      1 C         142.5719  140.7259  158.6867 C.ar    1  UNL1        0.2394
      2 N         143.0888  141.2509  159.9933 N.ar    1  UNL1       -0.1782
      3 C         144.2079  142.2495  160.0103 C.ar    1  UNL1        0.2194
      4 N         144.8102  142.7232  158.7207 N.ar    1  UNL1       -0.2131
      5 C         144.2933  142.1981  157.4142 C.ar    1  UNL1        0.0952
      6 C         144.6861  142.4785  155.9939 C.ar    1  UNL1        0.0268
      7 C         143.8097  141.6532  155.0991 C.ar    1  UNL1        0.0372
      8 S         142.8753  140.8627  155.9663 S.2     1  UNL1       -0.0803
      9 C         143.1742  141.1995  157.3971 C.ar    1  UNL1        0.1008
     10 N         144.7248  142.7745  161.3170 N.pl3   1  UNL1       -0.3045
     11 H         145.3024  143.5715  161.3333 H       1  UNL1        0.1496
     12 C         144.3615  142.0851  162.5987 C.3     1  UNL1        0.0745
     13 C         145.2015  140.9497  163.1038 C.3     1  UNL1        0.0369
     14 C         144.8382  140.2603  164.3855 C.3     1  UNL1        0.0741
     15 N         143.6349  140.7063  165.1621 N.3     1  UNL1       -0.2689
     16 C         142.7949  141.8417  164.6570 C.3     1  UNL1        0.0741
     17 C         143.1582  142.5311  163.3753 C.3     1  UNL1        0.0369
     18 C         143.2716  140.0169  166.4439 C.3     1  UNL1        0.0991
     19 C         142.4062  140.7143  167.4512 C.ar    1  UNL1       -0.0061
     20 C         142.9598  141.8534  168.2551 C.ar    1  UNL1       -0.0015
     21 C         142.0944  142.5506  169.2624 C.ar    1  UNL1        0.0196
     22 C         140.6754  142.1089  169.4660 C.ar    1  UNL1        0.1217
     23 C         140.1218  140.9699  168.6621 C.ar    1  UNL1        0.0196
     24 C         140.9872  140.2726  167.6548 C.ar    1  UNL1       -0.0015
     25 S         139.8100  142.8063  170.4733 S.O2    1  UNL1        0.0572
     26 N         138.9446  143.5036  171.4807 N.3     1  UNL1       -0.2035
     27 O         140.6666  144.0324  170.3605 O.2     1  UNL1       -0.1532
     28 O         138.9534  141.5801  170.5862 O.2     1  UNL1       -0.1532
     29 H         139.2976  144.4478  171.6367 H       1  UNL1        0.1442
     30 H         138.9602  142.9854  172.3591 H       1  UNL1        0.1442
     31 O         141.4528  139.7273  158.6696 O.3     1  UNL1       -0.4362
     32 C         138.8573  140.9678  159.5210 C.3     1  UNL1        0.0342
     33 C         139.5076  139.9246  160.3806 C.ar    1  UNL1        0.0124
     34 C         138.8602  139.5017  161.6659 C.ar    1  UNL1       -0.0012
     35 C         139.5105  138.4584  162.5255 C.ar    1  UNL1        0.0003
     36 C         140.8082  137.8382  162.0998 C.ar    1  UNL1       -0.0012
     37 C         141.4557  138.2611  160.8144 C.ar    1  UNL1        0.0124
     38 C         142.7533  137.6409  160.3887 C.3     1  UNL1        0.0342
     39 C         140.8054  139.3043  159.9549 C.ar    1  UNL1        0.1391
     40 C         138.8631  138.0355  163.8108 C.2     1  UNL1        0.0109
     41 C         138.6220  139.0425  164.8959 C.2     1  UNL1        0.0780
     42 C         137.9745  138.6196  166.1813 C.1     1  UNL1        0.1011
     43 N         137.3269  138.1967  167.4665 N.1     1  UNL1       -0.1908
@<TRIPOS>BOND
     1    32    33    1
     2    33    34   ar
     3    34    35   ar
     4    35    40    1
     5    40    41    2
     6    41    42    1
     7    42    43    3
     8    35    36   ar
     9    36    37   ar
    10    37    38    1
    11    37    39   ar
    12    39    31    1
    13    31     1    1
    14     1     2   ar
    15     2     3   ar
    16     3    10    1
    17    10    12    1
    18    12    13    1
    19    13    14    1
    20    14    15    1
    21    15    18    1
    22    18    19    1
    23    19    20   ar
    24    20    21   ar
    25    21    22   ar
    26    22    25    1
    27    25    26    1
    28    25    27    2
    29    25    28    2
    30    22    23   ar
    31    23    24   ar
    32    15    16    1
    33    16    17    1
    34     3     4   ar
    35     4     5   ar
    36     5     6   ar
    37     6     7   ar
    38     7     8   ar
    39     8     9   ar
    40    39    33   ar
    41     9     1   ar
    42    17    12    1
    43     9     5   ar
    44    24    19   ar
    45    10    11    1
    46    26    29    1
    47    26    30    1
