@<TRIPOS>MOLECULE
*****
 27 31 0 0 0
SMALL
GASTEIGER

@<TRIPOS>ATOM
      1 C         140.2349  140.5256  166.1595 C.ar    1  UNL1        0.0849
      2 C         141.0233  141.3620  165.1959 C.ar    1  UNL1        0.0273
      3 C         140.3998  141.8103  163.9074 C.ar    1  UNL1        0.0528
      4 S         140.9267  142.6357  162.7711 S.2     1  UNL1       -0.0514
      5 C         139.8403  142.7577  161.7440 C.ar    1  UNL1        0.1631
      6 N         138.6420  142.0077  162.2456 N.ar    1  UNL1       -0.2225
      7 C         138.9877  141.4222  163.5826 C.ar    1  UNL1        0.1084
      8 C         138.1993  140.5858  164.5463 C.ar    1  UNL1        0.1184
      9 N         138.8228  140.1375  165.8347 N.ar    1  UNL1       -0.2421
     10 C         142.1056  139.1807  170.0251 C.ar    1  UNL1        0.1989
     11 N         140.6739  139.6278  170.0003 N.ar    1  UNL1       -0.2224
     12 C         140.0504  140.0761  168.7118 C.ar    1  UNL1        0.1037
     13 C         140.8584  140.0773  167.4481 C.ar    1  UNL1        0.0560
     14 C         142.2900  139.6302  167.4728 C.ar    1  UNL1        0.1037
     15 N         142.9136  139.1819  168.7612 N.ar    1  UNL1       -0.2224
     16 N         139.9355  143.4994  160.4437 N.pl3   1  UNL1       -0.2881
     17 C         139.3783  142.8913  159.1909 C.3     1  UNL1        0.0940
     18 C         139.4735  143.6331  157.8906 C.3     1  UNL1        0.0375
     19 C         140.1259  144.9829  157.8432 C.3     1  UNL1        0.0609
     20 C         140.6832  145.5910  159.0960 C.3     1  UNL1        0.0375
     21 C         140.5879  144.8492  160.3963 C.3     1  UNL1        0.0940
     22 N         140.2211  145.7246  156.5429 N.3     1  UNL1       -0.2738
     23 C         141.1455  145.2367  155.4670 C.3     1  UNL1        0.0720
     24 C         141.2407  145.9784  154.1667 C.3     1  UNL1        0.0174
     25 C         140.4116  147.2081  153.9423 C.3     1  UNL1        0.0029
     26 C         139.4872  147.6960  155.0181 C.3     1  UNL1        0.0174
     27 C         139.3920  146.9543  156.3184 C.3     1  UNL1        0.0720
@<TRIPOS>BOND
     1    10    11   ar
     2    11    12   ar
     3    12    13   ar
     4    13     1    1
     5     1     2   ar
     6     2     3   ar
     7     3     4   ar
     8     4     5   ar
     9     5    16    1
    10    16    17    1
    11    17    18    1
    12    18    19    1
    13    19    22    1
    14    22    23    1
    15    23    24    1
    16    24    25    1
    17    25    26    1
    18    26    27    1
    19    19    20    1
    20    20    21    1
    21     5     6   ar
    22     6     7   ar
    23     7     8   ar
    24     8     9   ar
    25    13    14   ar
    26    14    15   ar
    27    15    10   ar
    28     9     1   ar
    29     7     3   ar
    30    21    16    1
    31    27    22    1
@<TRIPOS>MOLECULE
*****
 27 31 0 0 0
SMALL
GASTEIGER

@<TRIPOS>ATOM
      1 C         140.0471  141.5991  167.0077 C.ar    1  UNL1        0.0849
      2 C         140.5032  142.7178  166.1187 C.ar    1  UNL1        0.0273
      3 C         140.2258  142.6657  164.6455 C.ar    1  UNL1        0.0528
      4 S         140.5507  143.6132  163.5289 S.2     1  UNL1       -0.0514
      5 C         140.0179  143.0280  162.2546 C.ar    1  UNL1        0.1631
      6 N         139.3639  141.7189  162.5837 N.ar    1  UNL1       -0.2225
      7 C         139.4923  141.4949  164.0613 C.ar    1  UNL1        0.1084
      8 C         139.0362  140.3762  164.9503 C.ar    1  UNL1        0.1184
      9 N         139.3136  140.4283  166.4235 N.ar    1  UNL1       -0.2421
     10 C         140.8791  141.7552  171.4274 C.ar    1  UNL1        0.1989
     11 N         140.1905  140.5612  170.8356 N.ar    1  UNL1       -0.2224
     12 C         139.9131  140.5092  169.3624 C.ar    1  UNL1        0.1037
     13 C         140.3244  141.6511  168.4810 C.ar    1  UNL1        0.0560
     14 C         141.0131  142.8450  169.0728 C.ar    1  UNL1        0.1037
     15 N         141.2905  142.8971  170.5459 N.ar    1  UNL1       -0.2224
     16 N         140.1211  143.6439  160.8908 N.pl3   1  UNL1       -0.2881
     17 C         140.9464  144.8796  160.6864 C.3     1  UNL1        0.0940
     18 C         141.0496  145.4954  159.3225 C.3     1  UNL1        0.0375
     19 C         140.3276  144.8756  158.1631 C.3     1  UNL1        0.0609
     20 C         139.5023  143.6398  158.3675 C.3     1  UNL1        0.0375
     21 C         139.3991  143.0240  159.7314 C.3     1  UNL1        0.0940
     22 N         140.4308  145.4914  156.7993 N.3     1  UNL1       -0.2738
     23 C         141.3405  144.8878  155.7707 C.3     1  UNL1        0.0720
     24 C         141.4437  145.5036  154.4068 C.3     1  UNL1        0.0174
     25 C         140.6372  146.7231  154.0716 C.3     1  UNL1        0.0029
     26 C         139.7275  147.3267  155.1002 C.3     1  UNL1        0.0174
     27 C         139.6243  146.7109  156.4640 C.3     1  UNL1        0.0720
@<TRIPOS>BOND
     1    10    11   ar
     2    11    12   ar
     3    12    13   ar
     4    13     1    1
     5     1     2   ar
     6     2     3   ar
     7     3     4   ar
     8     4     5   ar
     9     5    16    1
    10    16    17    1
    11    17    18    1
    12    18    19    1
    13    19    22    1
    14    22    23    1
    15    23    24    1
    16    24    25    1
    17    25    26    1
    18    26    27    1
    19    19    20    1
    20    20    21    1
    21     5     6   ar
    22     6     7   ar
    23     7     8   ar
    24     8     9   ar
    25    13    14   ar
    26    14    15   ar
    27    15    10   ar
    28     9     1   ar
    29     7     3   ar
    30    21    16    1
    31    27    22    1
@<TRIPOS>MOLECULE
*****
 27 31 0 0 0
SMALL
GASTEIGER

@<TRIPOS>ATOM
      1 C         141.1943  145.2848  157.9289 C.ar    1  UNL1        0.0849
      2 C         140.6127  145.3819  159.3081 C.ar    1  UNL1        0.0273
      3 C         141.2005  144.5760  160.4284 C.ar    1  UNL1        0.0528
      4 S         140.8425  144.4658  161.8809 S.2     1  UNL1       -0.0514
      5 C         141.7907  143.4947  162.5196 C.ar    1  UNL1        0.1631
      6 N         142.7346  143.0047  161.4618 N.ar    1  UNL1       -0.2225
      7 C         142.3699  143.6730  160.1694 C.ar    1  UNL1        0.1084
      8 C         142.9515  143.5759  158.7902 C.ar    1  UNL1        0.1184
      9 N         142.3637  144.3818  157.6700 N.ar    1  UNL1       -0.2421
     10 C         139.4311  147.7027  154.5680 C.ar    1  UNL1        0.1989
     11 N         138.8784  147.8335  155.9563 N.ar    1  UNL1       -0.2224
     12 C         139.4662  147.0276  157.0766 C.ar    1  UNL1        0.1037
     13 C         140.6066  146.0908  156.8086 C.ar    1  UNL1        0.0560
     14 C         141.1593  145.9599  155.4203 C.ar    1  UNL1        0.1037
     15 N         140.5716  146.7658  154.3000 N.ar    1  UNL1       -0.2224
     16 N         141.7942  143.0854  163.9627 N.pl3   1  UNL1       -0.2881
     17 C         140.5688  143.2896  164.8032 C.3     1  UNL1        0.0940
     18 C         140.5723  142.8803  166.2463 C.3     1  UNL1        0.0375
     19 C         141.8013  142.2669  166.8488 C.3     1  UNL1        0.0609
     20 C         143.0268  142.0627  166.0083 C.3     1  UNL1        0.0375
     21 C         143.0232  142.4720  164.5652 C.3     1  UNL1        0.0940
     22 N         141.8049  141.8576  168.2919 N.3     1  UNL1       -0.2738
     23 C         140.9667  142.6057  169.2857 C.3     1  UNL1        0.0720
     24 C         140.9702  142.1965  170.7288 C.3     1  UNL1        0.0174
     25 C         141.8120  141.0391  171.1781 C.3     1  UNL1        0.0029
     26 C         142.6502  140.2910  170.1843 C.3     1  UNL1        0.0174
     27 C         142.6467  140.7003  168.7412 C.3     1  UNL1        0.0720
@<TRIPOS>BOND
     1    10    11   ar
     2    11    12   ar
     3    12    13   ar
     4    13     1    1
     5     1     2   ar
     6     2     3   ar
     7     3     4   ar
     8     4     5   ar
     9     5    16    1
    10    16    17    1
    11    17    18    1
    12    18    19    1
    13    19    22    1
    14    22    23    1
    15    23    24    1
    16    24    25    1
    17    25    26    1
    18    26    27    1
    19    19    20    1
    20    20    21    1
    21     5     6   ar
    22     6     7   ar
    23     7     8   ar
    24     8     9   ar
    25    13    14   ar
    26    14    15   ar
    27    15    10   ar
    28     9     1   ar
    29     7     3   ar
    30    21    16    1
    31    27    22    1
@<TRIPOS>MOLECULE
*****
 27 31 0 0 0
SMALL
GASTEIGER

@<TRIPOS>ATOM
      1 C         141.8770  142.1876  167.3007 C.ar    1  UNL1        0.0849
      2 C         140.9160  142.5143  166.1963 C.ar    1  UNL1        0.0273
      3 C         141.4289  143.0250  164.8825 C.ar    1  UNL1        0.0528
      4 S         140.7274  143.4280  163.6194 S.2     1  UNL1       -0.0514
      5 C         141.7676  143.8611  162.6293 C.ar    1  UNL1        0.1631
      6 N         143.1121  143.7257  163.2805 N.ar    1  UNL1       -0.2225
      7 C         142.9027  143.2090  164.6731 C.ar    1  UNL1        0.1084
      8 C         143.8637  142.8823  165.7775 C.ar    1  UNL1        0.1184
      9 N         143.3509  142.3716  167.0913 N.ar    1  UNL1       -0.2421
     10 C         140.3385  140.6554  171.2423 C.ar    1  UNL1        0.1989
     11 N         140.0785  139.8818  169.9838 N.ar    1  UNL1       -0.2224
     12 C         140.5913  140.3925  168.6699 C.ar    1  UNL1        0.1037
     13 C         141.3642  141.6769  168.6146 C.ar    1  UNL1        0.0560
     14 C         141.6242  142.4506  169.8730 C.ar    1  UNL1        0.1037
     15 N         141.1114  141.9399  171.1869 N.ar    1  UNL1       -0.2224
     16 N         141.5089  144.3446  161.2331 N.pl3   1  UNL1       -0.2881
     17 C         142.2885  143.7745  160.0854 C.3     1  UNL1        0.0940
     18 C         142.0297  144.2580  158.6893 C.3     1  UNL1        0.0375
     19 C         140.9914  145.3115  158.4408 C.3     1  UNL1        0.0609
     20 C         140.2118  145.8816  159.5885 C.3     1  UNL1        0.0375
     21 C         140.4706  145.3981  160.9846 C.3     1  UNL1        0.0940
     22 N         140.7327  145.7950  157.0446 N.3     1  UNL1       -0.2738
     23 C         141.6075  145.3337  155.9169 C.3     1  UNL1        0.0720
     24 C         141.3488  145.8172  154.5208 C.3     1  UNL1        0.0174
     25 C         140.2152  146.7620  154.2523 C.3     1  UNL1        0.0029
     26 C         139.3403  147.2234  155.3799 C.3     1  UNL1        0.0174
     27 C         139.5990  146.7399  156.7761 C.3     1  UNL1        0.0720
@<TRIPOS>BOND
     1    10    11   ar
     2    11    12   ar
     3    12    13   ar
     4    13     1    1
     5     1     2   ar
     6     2     3   ar
     7     3     4   ar
     8     4     5   ar
     9     5    16    1
    10    16    17    1
    11    17    18    1
    12    18    19    1
    13    19    22    1
    14    22    23    1
    15    23    24    1
    16    24    25    1
    17    25    26    1
    18    26    27    1
    19    19    20    1
    20    20    21    1
    21     5     6   ar
    22     6     7   ar
    23     7     8   ar
    24     8     9   ar
    25    13    14   ar
    26    14    15   ar
    27    15    10   ar
    28     9     1   ar
    29     7     3   ar
    30    21    16    1
    31    27    22    1
@<TRIPOS>MOLECULE
*****
 27 31 0 0 0
SMALL
GASTEIGER

@<TRIPOS>ATOM
      1 C         139.6377  140.4279  167.7399 C.ar    1  UNL1        0.0849
      2 C         140.1046  140.9438  166.4111 C.ar    1  UNL1        0.0273
      3 C         139.5892  140.3277  165.1443 C.ar    1  UNL1        0.0528
      4 S         139.8662  140.6224  163.6998 S.2     1  UNL1       -0.0514
      5 C         139.0550  139.6727  162.8691 C.ar    1  UNL1        0.1631
      6 N         138.2768  138.7910  163.8002 N.ar    1  UNL1       -0.2225
      7 C         138.6069  139.1958  165.2063 C.ar    1  UNL1        0.1084
      8 C         138.1399  138.6800  166.5351 C.ar    1  UNL1        0.1184
      9 N         138.6553  139.2960  167.8019 N.ar    1  UNL1       -0.2421
     10 C         141.1838  142.2760  171.5405 C.ar    1  UNL1        0.1989
     11 N         141.2407  143.0464  170.2548 N.ar    1  UNL1       -0.2224
     12 C         140.7253  142.4303  168.9879 C.ar    1  UNL1        0.1037
     13 C         140.1530  141.0440  169.0068 C.ar    1  UNL1        0.0560
     14 C         140.0961  140.2736  170.2926 C.ar    1  UNL1        0.1037
     15 N         140.6114  140.8896  171.5594 N.ar    1  UNL1       -0.2224
     16 N         139.0271  139.6149  161.3705 N.pl3   1  UNL1       -0.2881
     17 C         138.1301  140.5385  160.6009 C.3     1  UNL1        0.0940
     18 C         138.1022  140.4806  159.1023 C.3     1  UNL1        0.0375
     19 C         138.9712  139.4992  158.3733 C.3     1  UNL1        0.0609
     20 C         139.8681  138.5755  159.1429 C.3     1  UNL1        0.0375
     21 C         139.8961  138.6334  160.6415 C.3     1  UNL1        0.0940
     22 N         138.9432  139.4413  156.8746 N.3     1  UNL1       -0.2738
     23 C         138.3791  140.5886  156.0902 C.3     1  UNL1        0.0720
     24 C         138.3512  140.5308  154.5915 C.3     1  UNL1        0.0174
     25 C         138.8873  139.3256  153.8774 C.3     1  UNL1        0.0029
     26 C         139.4514  138.1783  154.6618 C.3     1  UNL1        0.0174
     27 C         139.4793  138.2361  156.1605 C.3     1  UNL1        0.0720
@<TRIPOS>BOND
     1    10    11   ar
     2    11    12   ar
     3    12    13   ar
     4    13     1    1
     5     1     2   ar
     6     2     3   ar
     7     3     4   ar
     8     4     5   ar
     9     5    16    1
    10    16    17    1
    11    17    18    1
    12    18    19    1
    13    19    22    1
    14    22    23    1
    15    23    24    1
    16    24    25    1
    17    25    26    1
    18    26    27    1
    19    19    20    1
    20    20    21    1
    21     5     6   ar
    22     6     7   ar
    23     7     8   ar
    24     8     9   ar
    25    13    14   ar
    26    14    15   ar
    27    15    10   ar
    28     9     1   ar
    29     7     3   ar
    30    21    16    1
    31    27    22    1
@<TRIPOS>MOLECULE
*****
 27 31 0 0 0
SMALL
GASTEIGER

@<TRIPOS>ATOM
      1 C         139.9114  145.1442  157.3938 C.ar    1  UNL1        0.0849
      2 C         140.4567  145.5589  158.7282 C.ar    1  UNL1        0.0273
      3 C         140.3930  144.6136  159.8911 C.ar    1  UNL1        0.0528
      4 S         140.8457  144.7425  161.3153 S.2     1  UNL1       -0.0514
      5 C         140.5165  143.4621  162.0241 C.ar    1  UNL1        0.1631
      6 N         139.8603  142.5420  161.0378 N.ar    1  UNL1       -0.2225
      7 C         139.7840  143.2536  159.7196 C.ar    1  UNL1        0.1084
      8 C         139.2386  142.8388  158.3852 C.ar    1  UNL1        0.1184
      9 N         139.3023  143.7841  157.2223 N.ar    1  UNL1       -0.2421
     10 C         140.1024  147.9801  153.9050 C.ar    1  UNL1        0.1989
     11 N         140.9525  146.7443  153.9144 N.ar    1  UNL1       -0.2224
     12 C         140.8888  145.7990  155.0774 C.ar    1  UNL1        0.1037
     13 C         139.9751  146.0895  156.2309 C.ar    1  UNL1        0.0560
     14 C         139.1250  147.3253  156.2215 C.ar    1  UNL1        0.1037
     15 N         139.1886  148.2706  155.0586 N.ar    1  UNL1       -0.2224
     16 N         140.7945  143.1558  163.4659 N.pl3   1  UNL1       -0.2881
     17 C         139.7907  143.5237  164.5179 C.3     1  UNL1        0.0940
     18 C         140.0688  143.2173  165.9597 C.3     1  UNL1        0.0375
     19 C         141.3507  142.5431  166.3495 C.3     1  UNL1        0.0609
     20 C         142.3546  142.1753  165.2974 C.3     1  UNL1        0.0375
     21 C         142.0765  142.4816  163.8556 C.3     1  UNL1        0.0940
     22 N         141.6288  142.2368  167.7913 N.3     1  UNL1       -0.2738
     23 C         140.4942  141.9487  168.7292 C.3     1  UNL1        0.0720
     24 C         140.7723  141.6424  170.1710 C.3     1  UNL1        0.0174
     25 C         142.1850  141.6241  170.6749 C.3     1  UNL1        0.0029
     26 C         143.3196  141.9121  169.7370 C.3     1  UNL1        0.0174
     27 C         143.0415  142.2185  168.2952 C.3     1  UNL1        0.0720
@<TRIPOS>BOND
     1    10    11   ar
     2    11    12   ar
     3    12    13   ar
     4    13     1    1
     5     1     2   ar
     6     2     3   ar
     7     3     4   ar
     8     4     5   ar
     9     5    16    1
    10    16    17    1
    11    17    18    1
    12    18    19    1
    13    19    22    1
    14    22    23    1
    15    23    24    1
    16    24    25    1
    17    25    26    1
    18    26    27    1
    19    19    20    1
    20    20    21    1
    21     5     6   ar
    22     6     7   ar
    23     7     8   ar
    24     8     9   ar
    25    13    14   ar
    26    14    15   ar
    27    15    10   ar
    28     9     1   ar
    29     7     3   ar
    30    21    16    1
    31    27    22    1
@<TRIPOS>MOLECULE
*****
 27 31 0 0 0
SMALL
GASTEIGER

@<TRIPOS>ATOM
      1 C         139.8209  140.1783  167.5602 C.ar    1  UNL1        0.0849
      2 C         140.7303  140.3939  166.3870 C.ar    1  UNL1        0.0273
      3 C         140.4511  139.7036  165.0849 C.ar    1  UNL1        0.0528
      4 S         141.1644  139.7229  163.7655 S.2     1  UNL1       -0.0514
      5 C         140.4167  138.8290  162.8212 C.ar    1  UNL1        0.1631
      6 N         139.2413  138.2572  163.5570 N.ar    1  UNL1       -0.2225
      7 C         139.2625  138.7978  164.9560 C.ar    1  UNL1        0.1084
      8 C         138.3531  138.5821  166.1292 C.ar    1  UNL1        0.1184
      9 N         138.6323  139.2724  167.4313 N.ar    1  UNL1       -0.2421
     10 C         140.6583  142.2491  171.4668 C.ar    1  UNL1        0.1989
     11 N         140.6292  143.0376  170.1911 N.ar    1  UNL1       -0.2224
     12 C         140.3500  142.3473  168.8889 C.ar    1  UNL1        0.1037
     13 C         140.1000  140.8686  168.8624 C.ar    1  UNL1        0.0560
     14 C         140.1292  140.0800  170.1381 C.ar    1  UNL1        0.1037
     15 N         140.4083  140.7702  171.4403 N.ar    1  UNL1       -0.2224
     16 N         140.7806  138.5549  161.3920 N.pl3   1  UNL1       -0.2881
     17 C         139.7367  138.6564  160.3196 C.3     1  UNL1        0.0940
     18 C         140.1006  138.3823  158.8905 C.3     1  UNL1        0.0375
     19 C         141.5083  138.0068  158.5337 C.3     1  UNL1        0.0609
     20 C         142.5521  137.9054  159.6061 C.3     1  UNL1        0.0375
     21 C         142.1883  138.1794  161.0352 C.3     1  UNL1        0.0940
     22 N         141.8722  137.7328  157.1045 N.3     1  UNL1       -0.2738
     23 C         141.2377  138.5292  156.0031 C.3     1  UNL1        0.0720
     24 C         141.6016  138.2552  154.5740 C.3     1  UNL1        0.0174
     25 C         142.5999  137.1847  154.2462 C.3     1  UNL1        0.0029
     26 C         143.2343  136.3882  155.3476 C.3     1  UNL1        0.0174
     27 C         142.8704  136.6623  156.7768 C.3     1  UNL1        0.0720
@<TRIPOS>BOND
     1    10    11   ar
     2    11    12   ar
     3    12    13   ar
     4    13     1    1
     5     1     2   ar
     6     2     3   ar
     7     3     4   ar
     8     4     5   ar
     9     5    16    1
    10    16    17    1
    11    17    18    1
    12    18    19    1
    13    19    22    1
    14    22    23    1
    15    23    24    1
    16    24    25    1
    17    25    26    1
    18    26    27    1
    19    19    20    1
    20    20    21    1
    21     5     6   ar
    22     6     7   ar
    23     7     8   ar
    24     8     9   ar
    25    13    14   ar
    26    14    15   ar
    27    15    10   ar
    28     9     1   ar
    29     7     3   ar
    30    21    16    1
    31    27    22    1
@<TRIPOS>MOLECULE
*****
 27 31 0 0 0
SMALL
GASTEIGER

@<TRIPOS>ATOM
      1 C         138.7813  140.7314  163.9031 C.ar    1  UNL1        0.0849
      2 C         139.4194  141.9453  163.2955 C.ar    1  UNL1        0.0273
      3 C         139.2536  142.2264  161.8314 C.ar    1  UNL1        0.0528
      4 S         139.7614  143.3354  160.9585 S.2     1  UNL1       -0.0514
      5 C         139.2711  143.0882  159.5626 C.ar    1  UNL1        0.1631
      6 N         138.4604  141.8262  159.5728 N.ar    1  UNL1       -0.2225
      7 C         138.4495  141.2936  160.9750 C.ar    1  UNL1        0.1084
      8 C         137.8113  140.0797  161.5827 C.ar    1  UNL1        0.1184
      9 N         137.9772  139.7987  163.0467 N.ar    1  UNL1       -0.2421
     10 C         139.2788  139.8881  168.2953 C.ar    1  UNL1        0.1989
     11 N         140.0067  141.0385  167.6654 N.ar    1  UNL1       -0.2224
     12 C         139.8408  141.3196  166.2013 C.ar    1  UNL1        0.1037
     13 C         138.9471  140.4503  165.3672 C.ar    1  UNL1        0.0560
     14 C         138.2193  139.2999  165.9972 C.ar    1  UNL1        0.1037
     15 N         138.3851  139.0188  167.4612 N.ar    1  UNL1       -0.2224
     16 N         139.5438  143.9513  158.3665 N.pl3   1  UNL1       -0.2881
     17 C         140.3282  145.2205  158.5206 C.3     1  UNL1        0.0940
     18 C         140.6009  146.0836  157.3245 C.3     1  UNL1        0.0375
     19 C         140.0892  145.6775  155.9742 C.3     1  UNL1        0.0609
     20 C         139.3048  144.4083  155.8201 C.3     1  UNL1        0.0375
     21 C         139.0321  143.5452  157.0162 C.3     1  UNL1        0.0940
     22 N         140.3619  146.5406  154.7781 N.3     1  UNL1       -0.2738
     23 C         141.2313  146.0302  153.6675 C.3     1  UNL1        0.0720
     24 C         141.5040  146.8933  152.4714 C.3     1  UNL1        0.0174
     25 C         140.9072  148.2668  152.3859 C.3     1  UNL1        0.0029
     26 C         140.0378  148.7772  153.4965 C.3     1  UNL1        0.0174
     27 C         139.7651  147.9141  154.6926 C.3     1  UNL1        0.0720
@<TRIPOS>BOND
     1    10    11   ar
     2    11    12   ar
     3    12    13   ar
     4    13     1    1
     5     1     2   ar
     6     2     3   ar
     7     3     4   ar
     8     4     5   ar
     9     5    16    1
    10    16    17    1
    11    17    18    1
    12    18    19    1
    13    19    22    1
    14    22    23    1
    15    23    24    1
    16    24    25    1
    17    25    26    1
    18    26    27    1
    19    19    20    1
    20    20    21    1
    21     5     6   ar
    22     6     7   ar
    23     7     8   ar
    24     8     9   ar
    25    13    14   ar
    26    14    15   ar
    27    15    10   ar
    28     9     1   ar
    29     7     3   ar
    30    21    16    1
    31    27    22    1
@<TRIPOS>MOLECULE
*****
 27 31 0 0 0
SMALL
GASTEIGER

@<TRIPOS>ATOM
      1 C         142.9780  137.7464  157.4811 C.ar    1  UNL1        0.0849
      2 C         142.5092  137.5496  158.8923 C.ar    1  UNL1        0.0273
      3 C         142.6505  138.6597  159.8911 C.ar    1  UNL1        0.0528
      4 S         142.2822  138.7574  161.3419 S.2     1  UNL1       -0.0514
      5 C         142.6646  140.1245  161.8263 C.ar    1  UNL1        0.1631
      6 N         143.2694  140.8718  160.6748 N.ar    1  UNL1       -0.2225
      7 C         143.2607  139.9665  159.4788 C.ar    1  UNL1        0.1084
      8 C         143.7295  140.1632  158.0677 C.ar    1  UNL1        0.1184
      9 N         143.5882  139.0532  157.0688 N.ar    1  UNL1       -0.2421
     10 C         142.5541  134.4162  154.4843 C.ar    1  UNL1        0.1989
     11 N         143.0831  134.1264  155.8577 N.ar    1  UNL1       -0.2224
     12 C         143.2244  135.2365  156.8566 C.ar    1  UNL1        0.1037
     13 C         142.8367  136.6363  156.4822 C.ar    1  UNL1        0.0560
     14 C         142.3077  136.9261  155.1088 C.ar    1  UNL1        0.1037
     15 N         142.1664  135.8161  154.1099 N.ar    1  UNL1       -0.2224
     16 N         142.4755  140.6518  163.2177 N.pl3   1  UNL1       -0.2881
     17 C         143.2767  140.0825  164.3508 C.3     1  UNL1        0.0940
     18 C         143.0876  140.6098  165.7423 C.3     1  UNL1        0.0375
     19 C         142.0973  141.7064  166.0007 C.3     1  UNL1        0.0609
     20 C         141.2962  142.2757  164.8676 C.3     1  UNL1        0.0375
     21 C         141.4853  141.7484  163.4761 C.3     1  UNL1        0.0940
     22 N         141.9082  142.2338  167.3921 N.3     1  UNL1       -0.2738
     23 C         140.5933  142.8325  167.7951 C.3     1  UNL1        0.0720
     24 C         140.4042  143.3598  169.1865 C.3     1  UNL1        0.0174
     25 C         141.5300  143.2884  170.1751 C.3     1  UNL1        0.0029
     26 C         142.8450  142.6897  169.7722 C.3     1  UNL1        0.0174
     27 C         143.0341  142.1624  168.3807 C.3     1  UNL1        0.0720
@<TRIPOS>BOND
     1    10    11   ar
     2    11    12   ar
     3    12    13   ar
     4    13     1    1
     5     1     2   ar
     6     2     3   ar
     7     3     4   ar
     8     4     5   ar
     9     5    16    1
    10    16    17    1
    11    17    18    1
    12    18    19    1
    13    19    22    1
    14    22    23    1
    15    23    24    1
    16    24    25    1
    17    25    26    1
    18    26    27    1
    19    19    20    1
    20    20    21    1
    21     5     6   ar
    22     6     7   ar
    23     7     8   ar
    24     8     9   ar
    25    13    14   ar
    26    14    15   ar
    27    15    10   ar
    28     9     1   ar
    29     7     3   ar
    30    21    16    1
    31    27    22    1
