@<TRIPOS>MOLECULE
*****
 22 24 0 0 0
SMALL
GASTEIGER

@<TRIPOS>ATOM
      1 C         139.8069  140.2328  167.5668 C.ar    1  UNL1       -0.0001
      2 C         138.7369  139.3222  167.0418 C.ar    1  UNL1       -0.0003
      3 C         138.0799  139.6174  165.7260 C.ar    1  UNL1       -0.0029
      4 C         138.4930  140.8232  164.9352 C.ar    1  UNL1       -0.0047
      5 C         139.5630  141.7338  165.4602 C.ar    1  UNL1       -0.0047
      6 C         140.2200  141.4386  166.7760 C.ar    1  UNL1       -0.0029
      7 C         139.7598  142.8395  164.4658 C.3     1  UNL1        0.1202
      8 N         138.8114  142.6121  163.3262 N.am    1  UNL1       -0.2713
      9 C         138.6705  143.4788  162.1099 C.2     1  UNL1        0.2256
     10 O         137.6734  143.1234  161.0472 O.2     1  UNL1       -0.2749
     11 C         138.0284  141.3660  163.6163 C.3     1  UNL1        0.1202
     12 C         139.5269  144.7007  161.9565 C.3     1  UNL1        0.0768
     13 C         139.6545  146.1753  161.7133 C.3     1  UNL1        0.0096
     14 C         140.8824  145.3425  161.9340 C.3     1  UNL1        0.0096
     15 C         141.6936  140.6922  169.2928 C.2     1  UNL1        0.0598
     16 C         140.4639  139.9376  168.8825 C.2     1  UNL1        0.0047
     17 O         141.8449  141.0474  171.8620 O.2     1  UNL1       -0.2681
     18 C         142.3506  140.3971  170.6086 C.2     1  UNL1        0.2679
     19 N         143.5134  139.4514  170.6709 N.am    1  UNL1       -0.1934
     20 O         144.1704  139.1562  171.9866 O.3     1  UNL1       -0.2949
     21 H         143.8453  139.0245  169.8482 H       1  UNL1        0.1825
     22 H         143.7247  139.6544  172.6895 H       1  UNL1        0.2414
@<TRIPOS>BOND
     1    17    18    2
     2    18    15    1
     3    15    16    2
     4    16     1    1
     5     1     2   ar
     6     2     3   ar
     7     3     4   ar
     8     4     5   ar
     9     5     6   ar
    10     5     7    1
    11     7     8    1
    12     8     9   am
    13     9    10    2
    14     9    12    1
    15    12    13    1
    16    13    14    1
    17     8    11    1
    18    18    19   am
    19    19    20    1
    20     6     1   ar
    21    14    12    1
    22    11     4    1
    23    19    21    1
    24    20    22    1
@<TRIPOS>MOLECULE
*****
 22 24 0 0 0
SMALL
GASTEIGER

@<TRIPOS>ATOM
      1 C         140.3064  140.0354  167.7216 C.ar    1  UNL1       -0.0001
      2 C         138.8570  139.6529  167.6687 C.ar    1  UNL1       -0.0003
      3 C         138.2680  139.1198  166.3963 C.ar    1  UNL1       -0.0029
      4 C         139.1284  138.9693  165.1769 C.ar    1  UNL1       -0.0047
      5 C         140.5778  139.3519  165.2298 C.ar    1  UNL1       -0.0047
      6 C         141.1668  139.8849  166.5022 C.ar    1  UNL1       -0.0029
      7 C         141.1748  139.0947  163.8779 C.3     1  UNL1        0.1202
      8 N         140.0943  138.5533  162.9895 N.am    1  UNL1       -0.2713
      9 C         140.2509  138.1586  161.5508 C.2     1  UNL1        0.2256
     10 O         139.0740  137.6300  160.7857 O.2     1  UNL1       -0.2749
     11 C         138.8295  138.4758  163.7923 C.3     1  UNL1        0.1202
     12 C         141.5845  138.2926  160.8773 C.3     1  UNL1        0.0768
     13 C         142.9797  137.7921  160.6472 C.3     1  UNL1        0.0096
     14 C         142.4991  139.0251  159.9409 C.3     1  UNL1        0.0096
     15 C         141.0798  142.0462  169.1737 C.2     1  UNL1        0.0598
     16 C         140.8955  140.5685  168.9939 C.2     1  UNL1        0.0047
     17 O         141.0452  142.2308  171.7649 O.2     1  UNL1       -0.2681
     18 C         141.6689  142.5793  170.4460 C.2     1  UNL1        0.2679
     19 N         142.8816  143.4609  170.3994 N.am    1  UNL1       -0.1934
     20 O         143.4706  143.9940  171.6718 O.3     1  UNL1       -0.2949
     21 H         143.2909  143.6896  169.5338 H       1  UNL1        0.1825
     22 H         142.9512  143.6759  172.4267 H       1  UNL1        0.2414
@<TRIPOS>BOND
     1    17    18    2
     2    18    15    1
     3    15    16    2
     4    16     1    1
     5     1     2   ar
     6     2     3   ar
     7     3     4   ar
     8     4     5   ar
     9     5     6   ar
    10     5     7    1
    11     7     8    1
    12     8     9   am
    13     9    10    2
    14     9    12    1
    15    12    13    1
    16    13    14    1
    17     8    11    1
    18    18    19   am
    19    19    20    1
    20     6     1   ar
    21    14    12    1
    22    11     4    1
    23    19    21    1
    24    20    22    1
@<TRIPOS>MOLECULE
*****
 22 24 0 0 0
SMALL
GASTEIGER

@<TRIPOS>ATOM
      1 C         138.5710  139.0912  166.1484 C.ar    1  UNL1       -0.0001
      2 C         138.6634  137.6475  165.7520 C.ar    1  UNL1       -0.0003
      3 C         138.7554  137.2722  164.3026 C.ar    1  UNL1       -0.0029
      4 C         138.7549  138.3405  163.2497 C.ar    1  UNL1       -0.0047
      5 C         138.6625  139.7842  163.6461 C.ar    1  UNL1       -0.0047
      6 C         138.5705  140.1595  165.0955 C.ar    1  UNL1       -0.0029
      7 C         138.6842  140.6109  162.3947 C.3     1  UNL1        0.1202
      8 N         138.7900  139.6781  161.2248 N.am    1  UNL1       -0.2713
      9 C         138.8429  140.0782  159.7800 C.2     1  UNL1        0.2256
     10 O         138.9494  139.0280  158.7144 O.2     1  UNL1       -0.2749
     11 C         138.8338  138.2749  161.7532 C.3     1  UNL1        0.1202
     12 C         138.7893  141.5285  159.4010 C.3     1  UNL1        0.0768
     13 C         138.4328  142.6011  158.4150 C.3     1  UNL1        0.0096
     14 C         139.0529  142.9679  159.7306 C.3     1  UNL1        0.0096
     15 C         139.7114  139.8835  168.3442 C.2     1  UNL1        0.0598
     16 C         138.4790  139.4665  167.5978 C.2     1  UNL1        0.0047
     17 O         138.3503  140.8449  170.3375 O.2     1  UNL1       -0.2681
     18 C         139.6194  140.2589  169.7936 C.2     1  UNL1        0.2679
     19 N         140.7966  140.0482  170.6991 N.am    1  UNL1       -0.1934
     20 O         140.7046  140.4236  172.1484 O.3     1  UNL1       -0.2949
     21 H         141.6296  139.6636  170.3421 H       1  UNL1        0.1825
     22 H         139.8237  140.7849  172.3335 H       1  UNL1        0.2414
@<TRIPOS>BOND
     1    17    18    2
     2    18    15    1
     3    15    16    2
     4    16     1    1
     5     1     2   ar
     6     2     3   ar
     7     3     4   ar
     8     4     5   ar
     9     5     6   ar
    10     5     7    1
    11     7     8    1
    12     8     9   am
    13     9    10    2
    14     9    12    1
    15    12    13    1
    16    13    14    1
    17     8    11    1
    18    18    19   am
    19    19    20    1
    20     6     1   ar
    21    14    12    1
    22    11     4    1
    23    19    21    1
    24    20    22    1
@<TRIPOS>MOLECULE
*****
 22 24 0 0 0
SMALL
GASTEIGER

@<TRIPOS>ATOM
      1 C         140.2425  143.2089  166.2017 C.ar    1  UNL1       -0.0001
      2 C         139.1143  144.1885  166.0696 C.ar    1  UNL1       -0.0003
      3 C         138.8544  144.8602  164.7538 C.ar    1  UNL1       -0.0029
      4 C         139.7228  144.5523  163.5701 C.ar    1  UNL1       -0.0047
      5 C         140.8510  143.5727  163.7023 C.ar    1  UNL1       -0.0047
      6 C         141.1108  142.9010  165.0181 C.ar    1  UNL1       -0.0029
      7 C         141.5338  143.4697  162.3706 C.3     1  UNL1        0.1202
      8 N         140.8276  144.3857  161.4155 N.am    1  UNL1       -0.2713
      9 C         141.1789  144.5957  159.9724 C.2     1  UNL1        0.2256
     10 O         140.3775  145.5491  159.1365 O.2     1  UNL1       -0.2749
     11 C         139.7083  145.0547  162.1569 C.3     1  UNL1        0.1202
     12 C         142.3317  143.8524  159.3653 C.3     1  UNL1        0.0768
     13 C         143.1367  143.4631  158.1610 C.3     1  UNL1        0.0096
     14 C         143.5232  142.9541  159.5180 C.3     1  UNL1        0.0096
     15 C         140.3315  143.3019  168.7966 C.2     1  UNL1        0.0598
     16 C         140.5023  142.5372  167.5175 C.2     1  UNL1        0.0047
     17 O         139.5651  141.7065  170.6985 O.2     1  UNL1       -0.2681
     18 C         140.5914  142.6302  170.1124 C.2     1  UNL1        0.2679
     19 N         141.8776  142.8822  170.8420 N.am    1  UNL1       -0.1934
     20 O         142.1374  142.2105  172.1578 O.3     1  UNL1       -0.2949
     21 H         142.5512  143.4884  170.4573 H       1  UNL1        0.1825
     22 H         141.3795  141.6519  172.3909 H       1  UNL1        0.2414
@<TRIPOS>BOND
     1    17    18    2
     2    18    15    1
     3    15    16    2
     4    16     1    1
     5     1     2   ar
     6     2     3   ar
     7     3     4   ar
     8     4     5   ar
     9     5     6   ar
    10     5     7    1
    11     7     8    1
    12     8     9   am
    13     9    10    2
    14     9    12    1
    15    12    13    1
    16    13    14    1
    17     8    11    1
    18    18    19   am
    19    19    20    1
    20     6     1   ar
    21    14    12    1
    22    11     4    1
    23    19    21    1
    24    20    22    1
@<TRIPOS>MOLECULE
*****
 22 24 0 0 0
SMALL
GASTEIGER

@<TRIPOS>ATOM
      1 C         140.1536  141.0909  166.9797 C.ar    1  UNL1       -0.0001
      2 C         139.2627  139.9020  167.1869 C.ar    1  UNL1       -0.0003
      3 C         138.4706  139.3493  166.0392 C.ar    1  UNL1       -0.0029
      4 C         138.5694  139.9854  164.6844 C.ar    1  UNL1       -0.0047
      5 C         139.4603  141.1743  164.4772 C.ar    1  UNL1       -0.0047
      6 C         140.2524  141.7270  165.6249 C.ar    1  UNL1       -0.0029
      7 C         139.3549  141.5875  163.0391 C.3     1  UNL1        0.1202
      8 N         138.3989  140.6540  162.3575 N.am    1  UNL1       -0.2713
      9 C         137.9986  140.7022  160.9126 C.2     1  UNL1        0.2256
     10 O         137.0270  139.6967  160.3697 O.2     1  UNL1       -0.2749
     11 C         137.9134  139.6639  163.3743 C.3     1  UNL1        0.1202
     12 C         138.5700  141.7559  160.0108 C.3     1  UNL1        0.0768
     13 C         139.5968  142.8147  159.7379 C.3     1  UNL1        0.0096
     14 C         138.5329  142.5220  158.7218 C.3     1  UNL1        0.0096
     15 C         140.2780  141.8969  169.4464 C.2     1  UNL1        0.0598
     16 C         140.9457  141.6436  168.1274 C.2     1  UNL1        0.0047
     17 O         140.6085  142.2213  172.0029 O.2     1  UNL1       -0.2681
     18 C         141.0701  142.4496  170.5941 C.2     1  UNL1        0.2679
     19 N         142.3238  143.2306  170.3329 N.am    1  UNL1       -0.1934
     20 O         143.1159  143.7834  171.4805 O.3     1  UNL1       -0.2949
     21 H         142.6268  143.3805  169.4082 H       1  UNL1        0.1825
     22 H         142.6828  143.5472  172.3157 H       1  UNL1        0.2414
@<TRIPOS>BOND
     1    17    18    2
     2    18    15    1
     3    15    16    2
     4    16     1    1
     5     1     2   ar
     6     2     3   ar
     7     3     4   ar
     8     4     5   ar
     9     5     6   ar
    10     5     7    1
    11     7     8    1
    12     8     9   am
    13     9    10    2
    14     9    12    1
    15    12    13    1
    16    13    14    1
    17     8    11    1
    18    18    19   am
    19    19    20    1
    20     6     1   ar
    21    14    12    1
    22    11     4    1
    23    19    21    1
    24    20    22    1
@<TRIPOS>MOLECULE
*****
 22 24 0 0 0
SMALL
GASTEIGER

@<TRIPOS>ATOM
      1 C         139.8765  141.6334  166.6820 C.ar    1  UNL1       -0.0001
      2 C         140.2762  143.0787  166.6472 C.ar    1  UNL1       -0.0003
      3 C         140.2551  143.8316  165.3500 C.ar    1  UNL1       -0.0029
      4 C         139.8345  143.1392  164.0877 C.ar    1  UNL1       -0.0047
      5 C         139.4348  141.6939  164.1225 C.ar    1  UNL1       -0.0047
      6 C         139.4558  140.9410  165.4197 C.ar    1  UNL1       -0.0029
      7 C         139.0687  141.2804  162.7278 C.3     1  UNL1        0.1202
      8 N         139.2422  142.4702  161.8310 N.am    1  UNL1       -0.2713
      9 C         138.9871  142.5052  160.3532 C.2     1  UNL1        0.2256
     10 O         139.2058  143.7744  159.5842 O.2     1  UNL1       -0.2749
     11 C         139.7154  143.6190  162.6715 C.3     1  UNL1        0.1202
     12 C         138.5135  141.2710  159.6445 C.3     1  UNL1        0.0768
     13 C         137.9423  140.6124  158.4239 C.3     1  UNL1        0.0096
     14 C         138.2643  139.7919  159.6376 C.3     1  UNL1        0.0096
     15 C         140.0411  141.6225  169.2748 C.2     1  UNL1        0.0598
     16 C         139.8975  140.8804  167.9792 C.2     1  UNL1        0.0047
     17 O         140.8034  141.4270  171.7508 O.2     1  UNL1       -0.2681
     18 C         140.0621  140.8695  170.5720 C.2     1  UNL1        0.2679
     19 N         139.3417  139.5591  170.6903 N.am    1  UNL1       -0.1934
     20 O         139.3628  138.8062  171.9875 O.3     1  UNL1       -0.2949
     21 H         138.8552  139.1932  169.9166 H       1  UNL1        0.1825
     22 H         139.8818  139.3014  172.6404 H       1  UNL1        0.2414
@<TRIPOS>BOND
     1    17    18    2
     2    18    15    1
     3    15    16    2
     4    16     1    1
     5     1     2   ar
     6     2     3   ar
     7     3     4   ar
     8     4     5   ar
     9     5     6   ar
    10     5     7    1
    11     7     8    1
    12     8     9   am
    13     9    10    2
    14     9    12    1
    15    12    13    1
    16    13    14    1
    17     8    11    1
    18    18    19   am
    19    19    20    1
    20     6     1   ar
    21    14    12    1
    22    11     4    1
    23    19    21    1
    24    20    22    1
@<TRIPOS>MOLECULE
*****
 22 24 0 0 0
SMALL
GASTEIGER

@<TRIPOS>ATOM
      1 C         142.0743  140.5440  166.9729 C.ar    1  UNL1       -0.0001
      2 C         143.2517  139.8565  166.3476 C.ar    1  UNL1       -0.0003
      3 C         143.7303  140.2755  164.9891 C.ar    1  UNL1       -0.0029
      4 C         143.0316  141.3819  164.2560 C.ar    1  UNL1       -0.0047
      5 C         141.8542  142.0694  164.8814 C.ar    1  UNL1       -0.0047
      6 C         141.3756  141.6504  166.2398 C.ar    1  UNL1       -0.0029
      7 C         141.3694  143.1195  163.9262 C.3     1  UNL1        0.1202
      8 N         142.2472  143.0810  162.7105 N.am    1  UNL1       -0.2713
      9 C         142.1201  143.9617  161.5029 C.2     1  UNL1        0.2256
     10 O         143.0762  143.8067  160.3576 O.2     1  UNL1       -0.2749
     11 C         143.2745  142.0071  162.9143 C.3     1  UNL1        0.1202
     12 C         141.0369  144.9975  161.4407 C.3     1  UNL1        0.0768
     13 C         140.0768  145.8265  160.6402 C.3     1  UNL1        0.0096
     14 C         140.1209  145.9623  162.1334 C.3     1  UNL1        0.0096
     15 C         140.9781  141.1343  169.2532 C.2     1  UNL1        0.0598
     16 C         141.5957  140.1250  168.3314 C.2     1  UNL1        0.0047
     17 O         140.6832  141.6295  171.7865 O.2     1  UNL1       -0.2681
     18 C         140.4995  140.7153  170.6116 C.2     1  UNL1        0.2679
     19 N         139.8371  139.3820  170.7952 N.am    1  UNL1       -0.1934
     20 O         139.3584  138.9630  172.1536 O.3     1  UNL1       -0.2949
     21 H         139.7164  138.7819  170.0241 H       1  UNL1        0.1825
     22 H         139.5531  139.6638  172.7954 H       1  UNL1        0.2414
@<TRIPOS>BOND
     1    17    18    2
     2    18    15    1
     3    15    16    2
     4    16     1    1
     5     1     2   ar
     6     2     3   ar
     7     3     4   ar
     8     4     5   ar
     9     5     6   ar
    10     5     7    1
    11     7     8    1
    12     8     9   am
    13     9    10    2
    14     9    12    1
    15    12    13    1
    16    13    14    1
    17     8    11    1
    18    18    19   am
    19    19    20    1
    20     6     1   ar
    21    14    12    1
    22    11     4    1
    23    19    21    1
    24    20    22    1
@<TRIPOS>MOLECULE
*****
 22 24 0 0 0
SMALL
GASTEIGER

@<TRIPOS>ATOM
      1 C         142.2012  141.2017  167.0132 C.ar    1  UNL1       -0.0001
      2 C         143.0986  142.3909  167.1878 C.ar    1  UNL1       -0.0003
      3 C         143.8710  142.9257  166.0185 C.ar    1  UNL1       -0.0029
      4 C         143.7462  142.2712  164.6746 C.ar    1  UNL1       -0.0047
      5 C         142.8488  141.0821  164.5000 C.ar    1  UNL1       -0.0047
      6 C         142.0763  140.5473  165.6694 C.ar    1  UNL1       -0.0029
      7 C         142.9271  140.6488  163.0660 C.3     1  UNL1        0.1202
      8 N         143.8728  141.5703  162.3544 N.am    1  UNL1       -0.2713
      9 C         144.2467  141.5012  160.9034 C.2     1  UNL1        0.2256
     10 O         145.2108  142.4965  160.3291 O.2     1  UNL1       -0.2749
     11 C         144.3790  142.5730  163.3486 C.3     1  UNL1        0.1202
     12 C         143.6565  140.4368  160.0267 C.3     1  UNL1        0.0768
     13 C         143.1908  139.0242  159.8327 C.3     1  UNL1        0.0096
     14 C         143.1001  140.0057  158.7021 C.3     1  UNL1        0.0096
     15 C         141.5850  141.2956  169.5354 C.2     1  UNL1        0.0598
     16 C         141.4287  140.6669  168.1826 C.2     1  UNL1        0.0047
     17 O         140.6021  141.6160  171.9189 O.2     1  UNL1       -0.2681
     18 C         140.8126  140.7608  170.7048 C.2     1  UNL1        0.2679
     19 N         140.2505  139.3707  170.6598 N.am    1  UNL1       -0.1934
     20 O         139.4780  138.8360  171.8291 O.3     1  UNL1       -0.2949
     21 H         140.3886  138.8094  169.8629 H       1  UNL1        0.1825
     22 H         139.4353  139.5110  172.5244 H       1  UNL1        0.2414
@<TRIPOS>BOND
     1    17    18    2
     2    18    15    1
     3    15    16    2
     4    16     1    1
     5     1     2   ar
     6     2     3   ar
     7     3     4   ar
     8     4     5   ar
     9     5     6   ar
    10     5     7    1
    11     7     8    1
    12     8     9   am
    13     9    10    2
    14     9    12    1
    15    12    13    1
    16    13    14    1
    17     8    11    1
    18    18    19   am
    19    19    20    1
    20     6     1   ar
    21    14    12    1
    22    11     4    1
    23    19    21    1
    24    20    22    1
@<TRIPOS>MOLECULE
*****
 22 24 0 0 0
SMALL
GASTEIGER

@<TRIPOS>ATOM
      1 C         140.2134  142.4071  166.3586 C.ar    1  UNL1       -0.0001
      2 C         139.4574  143.6954  166.2223 C.ar    1  UNL1       -0.0003
      3 C         139.5771  144.5060  164.9659 C.ar    1  UNL1       -0.0029
      4 C         140.4529  144.0283  163.8458 C.ar    1  UNL1       -0.0047
      5 C         141.2090  142.7400  163.9821 C.ar    1  UNL1       -0.0047
      6 C         141.0893  141.9294  165.2385 C.ar    1  UNL1       -0.0029
      7 C         141.9894  142.5247  162.7192 C.3     1  UNL1        0.1202
      8 N         141.7156  143.6799  161.8025 N.am    1  UNL1       -0.2713
      9 C         142.2904  143.8721  160.4303 C.2     1  UNL1        0.2256
     10 O         141.9230  145.0839  159.6263 O.2     1  UNL1       -0.2749
     11 C         140.7660  144.6092  162.4987 C.3     1  UNL1        0.1202
     12 C         143.2326  142.8525  159.8623 C.3     1  UNL1        0.0768
     13 C         143.4676  141.5253  159.2042 C.3     1  UNL1        0.0096
     14 C         144.6295  142.4138  159.5365 C.3     1  UNL1        0.0096
     15 C         141.2393  140.7404  168.0673 C.2     1  UNL1        0.0598
     16 C         140.0937  141.5965  167.6150 C.2     1  UNL1        0.0047
     17 O         142.2569  139.0567  169.7642 O.2     1  UNL1       -0.2681
     18 C         141.1196  139.9298  169.3237 C.2     1  UNL1        0.2679
     19 N         139.8624  139.9923  170.1396 N.am    1  UNL1       -0.1934
     20 O         139.7426  139.1817  171.3960 O.3     1  UNL1       -0.2949
     21 H         139.1158  140.5653  169.8504 H       1  UNL1        0.1825
     22 H         140.5597  138.6776  171.5347 H       1  UNL1        0.2414
@<TRIPOS>BOND
     1    17    18    2
     2    18    15    1
     3    15    16    2
     4    16     1    1
     5     1     2   ar
     6     2     3   ar
     7     3     4   ar
     8     4     5   ar
     9     5     6   ar
    10     5     7    1
    11     7     8    1
    12     8     9   am
    13     9    10    2
    14     9    12    1
    15    12    13    1
    16    13    14    1
    17     8    11    1
    18    18    19   am
    19    19    20    1
    20     6     1   ar
    21    14    12    1
    22    11     4    1
    23    19    21    1
    24    20    22    1
