@<TRIPOS>MOLECULE
*****
 33 37 0 0 0
SMALL
GASTEIGER

@<TRIPOS>ATOM
      1 C         139.8621  144.8654  158.0868 C.ar    1  UNL1        0.1317
      2 C         140.3475  145.4149  159.3954 C.ar    1  UNL1        0.0346
      3 C         140.1944  144.6080  160.6507 C.ar    1  UNL1        0.0121
      4 C         139.5560  143.2517  160.5973 C.ar    1  UNL1        0.1076
      5 C         139.0707  142.7022  159.2886 C.ar    1  UNL1        0.1080
      6 N         139.2237  143.5091  158.0334 N.ar    1  UNL1       -0.2289
      7 C         140.0852  149.0423  152.6629 C.3     1  UNL1        0.1206
      8 C         141.0284  148.0122  152.1158 C.3     1  UNL1        0.0323
      9 C         141.1743  146.9265  153.1406 C.3     1  UNL1        0.0298
     10 C         140.3213  147.2857  154.3210 C.3     1  UNL1        0.0960
     11 C         141.0615  145.9902  154.4749 C.3     1  UNL1        0.0487
     12 C         140.9085  145.1835  155.7301 C.3     1  UNL1        0.0946
     13 N         140.0151  145.6722  156.8315 N.pl3   1  UNL1       -0.2931
     14 C         139.2749  146.9677  156.6777 C.3     1  UNL1        0.0946
     15 C         139.4279  147.7744  155.4225 C.3     1  UNL1        0.0487
     16 O         139.6482  148.5934  154.0258 O.3     1  UNL1       -0.3605
     17 C         139.6546  150.3005  151.9690 C.3     1  UNL1        0.0712
     18 O         140.5709  152.7194  152.2116 O.co2   1  UNL1       -0.5491
     19 C         139.6883  151.6096  152.7005 C.2     1  UNL1        0.0528
     20 O         138.8392  151.8088  153.9209 O.co2   1  UNL1       -0.5491
     21 C         139.4030  142.4449  161.8525 C.2     1  UNL1        0.3767
     22 N         138.7220  141.1133  161.9671 N.2     1  UNL1       -0.0308
     23 C         138.8022  140.6734  163.3989 C.2     1  UNL1        0.2320
     24 C         138.3043  139.4448  164.1008 C.2     1  UNL1        0.0537
     25 C         138.5371  139.2759  165.5731 C.2     1  UNL1        0.0714
     26 C         139.2676  140.3356  166.3433 C.2     1  UNL1       -0.0133
     27 C         139.7654  141.5642  165.6414 C.3     1  UNL1        0.1037
     28 C         139.5327  141.7332  164.1692 C.2     1  UNL1        0.2178
     29 N         139.9040  142.8280  163.2135 N.2     1  UNL1       -0.0347
     30 C         138.0393  138.0473  166.2750 C.3     1  UNL1        0.4184
     31 F         137.5414  136.8187  166.9769 F       1  UNL1       -0.1659
     32 F         137.4927  138.9006  167.3809 F       1  UNL1       -0.1659
     33 F         138.5858  137.1940  165.1690 F       1  UNL1       -0.1659
@<TRIPOS>UNITY_ATOM_ATTR
18 1
charge -1
@<TRIPOS>BOND
     1    18    19   ar
     2    19    20   ar
     3    19    17    1
     4    17     7    1
     5     7     8    1
     6     8     9    1
     7     9    10    1
     8    10    11    1
     9    11    12    1
    10    12    13    1
    11    13     1    1
    12     1     2   ar
    13     2     3   ar
    14     3     4   ar
    15     4    21    1
    16    21    22    2
    17    22    23    1
    18    23    24    2
    19    24    25    1
    20    25    30    1
    21    30    31    1
    22    30    32    1
    23    30    33    1
    24    25    26    2
    25    26    27    1
    26    27    28    1
    27    28    29    2
    28     4     5   ar
    29     5     6   ar
    30    13    14    1
    31    14    15    1
    32    10    16    1
    33    16     7    1
    34    15    10    1
    35     6     1   ar
    36    29    21    1
    37    28    23    1
@<TRIPOS>MOLECULE
*****
 33 37 0 0 0
SMALL
GASTEIGER

@<TRIPOS>ATOM
      1 C         144.1258  141.0373  158.2270 C.ar    1  UNL1        0.1317
      2 C         143.5170  142.1910  158.9675 C.ar    1  UNL1        0.0346
      3 C         142.6032  141.9379  160.1298 C.ar    1  UNL1        0.0121
      4 C         142.2981  140.5311  160.5516 C.ar    1  UNL1        0.1076
      5 C         142.9069  139.3774  159.8110 C.ar    1  UNL1        0.1080
      6 N         143.8207  139.6305  158.6488 N.ar    1  UNL1       -0.2289
      7 C         148.6170  142.7278  153.3396 C.3     1  UNL1        0.1206
      8 C         147.9297  141.6438  152.5633 C.3     1  UNL1        0.0323
      9 C         146.8482  141.0682  153.4288 C.3     1  UNL1        0.0298
     10 C         146.8671  141.7964  154.7401 C.3     1  UNL1        0.0960
     11 C         145.8150  140.7312  154.6489 C.3     1  UNL1        0.0487
     12 C         144.9013  140.4782  155.8112 C.3     1  UNL1        0.0946
     13 N         145.0396  141.2904  157.0647 N.pl3   1  UNL1       -0.2931
     14 C         146.0917  142.3556  157.1559 C.3     1  UNL1        0.0946
     15 C         147.0055  142.6086  155.9936 C.3     1  UNL1        0.0487
     16 O         147.9604  142.8221  154.6849 O.3     1  UNL1       -0.3605
     17 C         149.7602  143.5696  152.8557 C.3     1  UNL1        0.0712
     18 O         152.1647  144.4565  153.2817 O.co2   1  UNL1       -0.5491
     19 C         151.1290  143.3833  153.4403 C.2     1  UNL1        0.0528
     20 O         151.4619  142.1237  154.1837 O.co2   1  UNL1       -0.5491
     21 C         141.3844  140.2780  161.7139 C.2     1  UNL1        0.3767
     22 N         141.1053  138.9448  162.3420 N.2     1  UNL1       -0.0308
     23 C         140.1377  139.1565  163.4684 C.2     1  UNL1        0.2320
     24 C         139.5058  138.2052  164.4409 C.2     1  UNL1        0.0537
     25 C         138.5549  138.7181  165.4815 C.2     1  UNL1        0.0714
     26 C         138.2359  140.1822  165.5496 C.2     1  UNL1       -0.0133
     27 C         138.8678  141.1334  164.5770 C.3     1  UNL1        0.1037
     28 C         139.8186  140.6206  163.5365 C.2     1  UNL1        0.2178
     29 N         140.5891  141.3138  162.4521 N.2     1  UNL1       -0.0347
     30 C         137.9230  137.7668  166.4541 C.3     1  UNL1        0.4184
     31 F         137.2912  136.8156  167.4266 F       1  UNL1       -0.1659
     32 F         138.3518  136.6099  165.6010 F       1  UNL1       -0.1659
     33 F         137.4943  138.9238  167.3072 F       1  UNL1       -0.1659
@<TRIPOS>UNITY_ATOM_ATTR
18 1
charge -1
@<TRIPOS>BOND
     1    18    19   ar
     2    19    20   ar
     3    19    17    1
     4    17     7    1
     5     7     8    1
     6     8     9    1
     7     9    10    1
     8    10    11    1
     9    11    12    1
    10    12    13    1
    11    13     1    1
    12     1     2   ar
    13     2     3   ar
    14     3     4   ar
    15     4    21    1
    16    21    22    2
    17    22    23    1
    18    23    24    2
    19    24    25    1
    20    25    30    1
    21    30    31    1
    22    30    32    1
    23    30    33    1
    24    25    26    2
    25    26    27    1
    26    27    28    1
    27    28    29    2
    28     4     5   ar
    29     5     6   ar
    30    13    14    1
    31    14    15    1
    32    10    16    1
    33    16     7    1
    34    15    10    1
    35     6     1   ar
    36    29    21    1
    37    28    23    1
@<TRIPOS>MOLECULE
*****
 33 37 0 0 0
SMALL
GASTEIGER

@<TRIPOS>ATOM
      1 C         142.3996  140.7811  162.3919 C.ar    1  UNL1        0.1317
      2 C         141.8832  140.1359  161.1401 C.ar    1  UNL1        0.0346
      3 C         142.6211  140.3124  159.8461 C.ar    1  UNL1        0.0121
      4 C         143.8753  141.1340  159.8039 C.ar    1  UNL1        0.1076
      5 C         144.3917  141.7793  161.0558 C.ar    1  UNL1        0.1080
      6 N         143.6538  141.6027  162.3498 N.ar    1  UNL1       -0.2289
      7 C         139.4882  140.4983  168.5854 C.3     1  UNL1        0.1206
      8 C         138.6133  139.4616  167.9452 C.3     1  UNL1        0.0323
      9 C         139.0447  139.3091  166.5166 C.3     1  UNL1        0.0298
     10 C         140.1861  140.2516  166.2739 C.3     1  UNL1        0.0960
     11 C         139.7974  139.4420  165.0725 C.3     1  UNL1        0.0487
     12 C         140.5352  139.6185  163.7785 C.3     1  UNL1        0.0946
     13 N         141.6618  140.6046  163.6860 N.pl3   1  UNL1       -0.2931
     14 C         142.0505  141.4141  164.8874 C.3     1  UNL1        0.0946
     15 C         141.3127  141.2376  166.1814 C.3     1  UNL1        0.0487
     16 O         140.4602  140.9865  167.5526 O.3     1  UNL1       -0.3605
     17 C         139.4055  140.9649  170.0085 C.3     1  UNL1        0.0712
     18 O         141.8613  140.2732  170.4988 O.co2   1  UNL1       -0.5491
     19 C         140.6553  141.1026  170.8265 C.2     1  UNL1        0.0528
     20 O         140.6991  142.0699  171.9721 O.co2   1  UNL1       -0.5491
     21 C         144.6131  141.3106  158.5099 C.2     1  UNL1        0.3767
     22 N         145.5578  142.4277  158.1789 N.2     1  UNL1       -0.0308
     23 C         146.0643  142.2085  156.7842 C.2     1  UNL1        0.2320
     24 C         147.0191  142.9877  155.9291 C.2     1  UNL1        0.0537
     25 C         147.3423  142.5142  154.5429 C.2     1  UNL1        0.0714
     26 C         146.7108  141.2616  154.0119 C.2     1  UNL1       -0.0133
     27 C         145.7560  140.4824  154.8670 C.3     1  UNL1        0.1037
     28 C         145.4328  140.9558  156.2531 C.2     1  UNL1        0.2178
     29 N         144.5359  140.4009  157.3197 N.2     1  UNL1       -0.0347
     30 C         148.2971  143.2934  153.6878 C.3     1  UNL1        0.4184
     31 F         149.2519  144.0726  152.8327 F       1  UNL1       -0.1659
     32 F         147.5576  144.5571  154.0135 F       1  UNL1       -0.1659
     33 F         149.0367  142.0297  153.3620 F       1  UNL1       -0.1659
@<TRIPOS>UNITY_ATOM_ATTR
18 1
charge -1
@<TRIPOS>BOND
     1    18    19   ar
     2    19    20   ar
     3    19    17    1
     4    17     7    1
     5     7     8    1
     6     8     9    1
     7     9    10    1
     8    10    11    1
     9    11    12    1
    10    12    13    1
    11    13     1    1
    12     1     2   ar
    13     2     3   ar
    14     3     4   ar
    15     4    21    1
    16    21    22    2
    17    22    23    1
    18    23    24    2
    19    24    25    1
    20    25    30    1
    21    30    31    1
    22    30    32    1
    23    30    33    1
    24    25    26    2
    25    26    27    1
    26    27    28    1
    27    28    29    2
    28     4     5   ar
    29     5     6   ar
    30    13    14    1
    31    14    15    1
    32    10    16    1
    33    16     7    1
    34    15    10    1
    35     6     1   ar
    36    29    21    1
    37    28    23    1
@<TRIPOS>MOLECULE
*****
 33 37 0 0 0
SMALL
GASTEIGER

@<TRIPOS>ATOM
      1 C         140.0723  144.1686  159.2974 C.ar    1  UNL1        0.1317
      2 C         140.3257  142.6930  159.3875 C.ar    1  UNL1        0.0346
      3 C         140.1578  141.9818  160.6976 C.ar    1  UNL1        0.0121
      4 C         139.7365  142.7463  161.9174 C.ar    1  UNL1        0.1076
      5 C         139.4831  144.2221  161.8272 C.ar    1  UNL1        0.1080
      6 N         139.6510  144.9332  160.5173 N.ar    1  UNL1       -0.2289
      7 C         140.4506  147.9822  153.6203 C.3     1  UNL1        0.1206
      8 C         141.2181  146.8108  153.0827 C.3     1  UNL1        0.0323
      9 C         141.2956  145.7724  154.1626 C.3     1  UNL1        0.0298
     10 C         140.5760  146.3021  155.3675 C.3     1  UNL1        0.0960
     11 C         141.1567  144.9321  155.5569 C.3     1  UNL1        0.0487
     12 C         140.9888  144.2210  156.8669 C.3     1  UNL1        0.0946
     13 N         140.2402  144.8798  157.9874 N.pl3   1  UNL1       -0.2931
     14 C         139.6595  146.2498  157.7979 C.3     1  UNL1        0.0946
     15 C         139.8274  146.9609  156.4880 C.3     1  UNL1        0.0487
     16 O         140.0538  147.6678  155.0323 O.3     1  UNL1       -0.3605
     17 C         140.1353  149.2459  152.8765 C.3     1  UNL1        0.0712
     18 O         138.9914  151.4939  153.4992 O.co2   1  UNL1       -0.5491
     19 C         140.1648  150.5642  153.5915 C.2     1  UNL1        0.0528
     20 O         141.3678  150.9529  154.3988 O.co2   1  UNL1       -0.5491
     21 C         139.5686  142.0352  163.2274 C.2     1  UNL1        0.3767
     22 N         140.2636  142.3775  164.5118 N.2     1  UNL1       -0.0308
     23 C         139.8008  141.4108  165.5612 C.2     1  UNL1        0.2320
     24 C         140.1459  141.2649  167.0137 C.2     1  UNL1        0.0537
     25 C         139.5100  140.1791  167.8302 C.2     1  UNL1        0.0714
     26 C         138.5290  139.2393  167.1943 C.2     1  UNL1       -0.0133
     27 C         138.1838  139.3852  165.7419 C.3     1  UNL1        0.1037
     28 C         138.8197  140.4709  164.9253 C.2     1  UNL1        0.2178
     29 N         138.6763  140.8569  163.4830 N.2     1  UNL1       -0.0347
     30 C         139.8551  140.0331  169.2827 C.3     1  UNL1        0.4184
     31 F         140.2002  139.8872  170.7351 F       1  UNL1       -0.1659
     32 F         138.3978  140.0857  169.6342 F       1  UNL1       -0.1659
     33 F         141.3124  139.9805  168.9311 F       1  UNL1       -0.1659
@<TRIPOS>UNITY_ATOM_ATTR
18 1
charge -1
@<TRIPOS>BOND
     1    18    19   ar
     2    19    20   ar
     3    19    17    1
     4    17     7    1
     5     7     8    1
     6     8     9    1
     7     9    10    1
     8    10    11    1
     9    11    12    1
    10    12    13    1
    11    13     1    1
    12     1     2   ar
    13     2     3   ar
    14     3     4   ar
    15     4    21    1
    16    21    22    2
    17    22    23    1
    18    23    24    2
    19    24    25    1
    20    25    30    1
    21    30    31    1
    22    30    32    1
    23    30    33    1
    24    25    26    2
    25    26    27    1
    26    27    28    1
    27    28    29    2
    28     4     5   ar
    29     5     6   ar
    30    13    14    1
    31    14    15    1
    32    10    16    1
    33    16     7    1
    34    15    10    1
    35     6     1   ar
    36    29    21    1
    37    28    23    1
@<TRIPOS>MOLECULE
*****
 33 37 0 0 0
SMALL
GASTEIGER

@<TRIPOS>ATOM
      1 C         141.6850  142.7282  162.6586 C.ar    1  UNL1        0.1317
      2 C         140.4073  143.4223  162.2904 C.ar    1  UNL1        0.0346
      3 C         140.2584  144.0508  160.9365 C.ar    1  UNL1        0.0121
      4 C         141.3872  143.9851  159.9509 C.ar    1  UNL1        0.1076
      5 C         142.6650  143.2909  160.3191 C.ar    1  UNL1        0.1080
      6 N         142.8139  142.6625  161.6729 N.ar    1  UNL1       -0.2289
      7 C         142.1077  140.5049  169.1234 C.3     1  UNL1        0.1206
      8 C         142.6144  139.2464  168.4835 C.3     1  UNL1        0.0323
      9 C         142.6293  139.4553  166.9981 C.3     1  UNL1        0.0298
     10 C         142.1319  140.8428  166.7200 C.3     1  UNL1        0.0960
     11 C         142.4962  140.0672  165.4889 C.3     1  UNL1        0.0487
     12 C         142.3473  140.6956  164.1352 C.3     1  UNL1        0.0946
     13 N         141.8340  142.0997  164.0124 N.pl3   1  UNL1       -0.2931
     14 C         141.4696  142.8754  165.2435 C.3     1  UNL1        0.0946
     15 C         141.6186  142.2469  166.5973 C.3     1  UNL1        0.0487
     16 O         141.8095  141.4915  168.0336 O.3     1  UNL1       -0.3605
     17 C         141.9304  140.7362  170.5947 C.3     1  UNL1        0.0712
     18 O         139.3532  140.4113  170.6413 O.co2   1  UNL1       -0.5491
     19 C         140.5834  141.1109  171.1381 C.2     1  UNL1        0.0528
     20 O         140.4667  142.1854  172.1783 O.co2   1  UNL1       -0.5491
     21 C         141.2383  144.6135  158.5970 C.2     1  UNL1        0.3767
     22 N         140.5045  145.8855  158.2913 N.2     1  UNL1       -0.0308
     23 C         140.6098  146.1384  156.8166 C.2     1  UNL1        0.2320
     24 C         140.0814  147.2405  155.9470 C.2     1  UNL1        0.0537
     25 C         140.3519  147.2269  154.4716 C.2     1  UNL1        0.0714
     26 C         141.1508  146.1112  153.8659 C.2     1  UNL1       -0.0133
     27 C         141.6792  145.0091  154.7355 C.3     1  UNL1        0.1037
     28 C         141.4087  145.0227  156.2108 C.2     1  UNL1        0.2178
     29 N         141.7971  144.0802  157.3112 N.2     1  UNL1       -0.0347
     30 C         139.8235  148.3290  153.6020 C.3     1  UNL1        0.4184
     31 F         139.2951  149.4311  152.7324 F       1  UNL1       -0.1659
     32 F         140.6747  147.8417  152.4672 F       1  UNL1       -0.1659
     33 F         138.9723  148.8163  154.7369 F       1  UNL1       -0.1659
@<TRIPOS>UNITY_ATOM_ATTR
18 1
charge -1
@<TRIPOS>BOND
     1    18    19   ar
     2    19    20   ar
     3    19    17    1
     4    17     7    1
     5     7     8    1
     6     8     9    1
     7     9    10    1
     8    10    11    1
     9    11    12    1
    10    12    13    1
    11    13     1    1
    12     1     2   ar
    13     2     3   ar
    14     3     4   ar
    15     4    21    1
    16    21    22    2
    17    22    23    1
    18    23    24    2
    19    24    25    1
    20    25    30    1
    21    30    31    1
    22    30    32    1
    23    30    33    1
    24    25    26    2
    25    26    27    1
    26    27    28    1
    27    28    29    2
    28     4     5   ar
    29     5     6   ar
    30    13    14    1
    31    14    15    1
    32    10    16    1
    33    16     7    1
    34    15    10    1
    35     6     1   ar
    36    29    21    1
    37    28    23    1
@<TRIPOS>MOLECULE
*****
 33 37 0 0 0
SMALL
GASTEIGER

@<TRIPOS>ATOM
      1 C         144.0254  141.4749  160.2015 C.ar    1  UNL1        0.1317
      2 C         144.0267  140.2140  161.0139 C.ar    1  UNL1        0.0346
      3 C         143.5856  140.2448  162.4473 C.ar    1  UNL1        0.0121
      4 C         143.1432  141.5366  163.0682 C.ar    1  UNL1        0.1076
      5 C         143.1420  142.7976  162.2558 C.ar    1  UNL1        0.1080
      6 N         143.5831  142.7667  160.8225 N.ar    1  UNL1       -0.2289
      7 C         146.4235  141.9626  153.8041 C.3     1  UNL1        0.1206
      8 C         145.6316  140.7072  153.5874 C.3     1  UNL1        0.0323
      9 C         144.9673  140.3486  154.8837 C.3     1  UNL1        0.0298
     10 C         145.3487  141.3824  155.9015 C.3     1  UNL1        0.0960
     11 C         144.4424  140.3106  156.4305 C.3     1  UNL1        0.0487
     12 C         144.0013  140.3415  157.8638 C.3     1  UNL1        0.0946
     13 N         144.4666  141.4441  158.7681 N.pl3   1  UNL1       -0.2931
     14 C         145.3729  142.5158  158.2391 C.3     1  UNL1        0.0946
     15 C         145.8140  142.4850  156.8058 C.3     1  UNL1        0.0487
     16 O         146.2487  142.3799  155.2342 O.3     1  UNL1       -0.3605
     17 C         147.2458  142.6756  152.7719 C.3     1  UNL1        0.0712
     18 O         147.2877  145.1499  153.5629 O.co2   1  UNL1       -0.5491
     19 C         148.0164  143.9068  153.1463 C.2     1  UNL1        0.0528
     20 O         149.5157  143.8949  153.1042 O.co2   1  UNL1       -0.5491
     21 C         142.7021  141.5675  164.5015 C.2     1  UNL1        0.3767
     22 N         141.7137  142.5243  165.0994 N.2     1  UNL1       -0.0308
     23 C         141.5726  142.1951  166.5560 C.2     1  UNL1        0.2320
     24 C         140.7399  142.8020  167.6461 C.2     1  UNL1        0.0537
     25 C         140.8086  142.2486  169.0387 C.2     1  UNL1        0.0714
     26 C         141.7099  141.0883  169.3410 C.2     1  UNL1       -0.0133
     27 C         142.5425  140.4814  168.2509 C.3     1  UNL1        0.1037
     28 C         142.4739  141.0348  166.8584 C.2     1  UNL1        0.2178
     29 N         143.1720  140.6469  165.5887 N.2     1  UNL1       -0.0347
     30 C         139.9759  142.8554  170.1288 C.3     1  UNL1        0.4184
     31 F         139.1432  143.4623  171.2189 F       1  UNL1       -0.1659
     32 F         139.2017  141.5763  170.2495 F       1  UNL1       -0.1659
     33 F         140.7501  144.1345  170.0080 F       1  UNL1       -0.1659
@<TRIPOS>UNITY_ATOM_ATTR
18 1
charge -1
@<TRIPOS>BOND
     1    18    19   ar
     2    19    20   ar
     3    19    17    1
     4    17     7    1
     5     7     8    1
     6     8     9    1
     7     9    10    1
     8    10    11    1
     9    11    12    1
    10    12    13    1
    11    13     1    1
    12     1     2   ar
    13     2     3   ar
    14     3     4   ar
    15     4    21    1
    16    21    22    2
    17    22    23    1
    18    23    24    2
    19    24    25    1
    20    25    30    1
    21    30    31    1
    22    30    32    1
    23    30    33    1
    24    25    26    2
    25    26    27    1
    26    27    28    1
    27    28    29    2
    28     4     5   ar
    29     5     6   ar
    30    13    14    1
    31    14    15    1
    32    10    16    1
    33    16     7    1
    34    15    10    1
    35     6     1   ar
    36    29    21    1
    37    28    23    1
@<TRIPOS>MOLECULE
*****
 33 37 0 0 0
SMALL
GASTEIGER

@<TRIPOS>ATOM
      1 C         143.9488  141.0442  158.9221 C.ar    1  UNL1        0.1317
      2 C         143.7471  139.6436  159.4197 C.ar    1  UNL1        0.0346
      3 C         142.9386  139.3970  160.6589 C.ar    1  UNL1        0.0121
      4 C         142.3318  140.5511  161.4005 C.ar    1  UNL1        0.1076
      5 C         142.5335  141.9517  160.9028 C.ar    1  UNL1        0.1080
      6 N         143.3420  142.1982  159.6636 N.ar    1  UNL1       -0.2289
      7 C         147.9315  142.7630  153.6212 C.3     1  UNL1        0.1206
      8 C         147.3051  141.5635  152.9738 C.3     1  UNL1        0.0323
      9 C         146.3426  140.9584  153.9524 C.3     1  UNL1        0.0298
     10 C         146.3742  141.7838  155.2045 C.3     1  UNL1        0.0960
     11 C         145.4275  140.6218  155.2635 C.3     1  UNL1        0.0487
     12 C         144.6190  140.3753  156.5027 C.3     1  UNL1        0.0946
     13 N         144.7573  141.2908  157.6828 N.pl3   1  UNL1       -0.2931
     14 C         145.7040  142.4527  157.6238 C.3     1  UNL1        0.0946
     15 C         146.5124  142.6993  156.3847 C.3     1  UNL1        0.0487
     16 O         147.3562  142.8991  154.9997 O.3     1  UNL1       -0.3605
     17 C         148.9537  143.6674  152.9991 C.3     1  UNL1        0.0712
     18 O         150.7237  141.8704  152.3765 O.co2   1  UNL1       -0.5491
     19 C         150.3860  143.2310  152.9099 C.2     1  UNL1        0.0528
     20 O         151.4807  144.1553  153.3541 O.co2   1  UNL1       -0.5491
     21 C         141.5234  140.3046  162.6396 C.2     1  UNL1        0.3767
     22 N         141.8691  140.7663  164.0243 N.2     1  UNL1       -0.0308
     23 C         140.7867  140.3001  164.9521 C.2     1  UNL1        0.2320
     24 C         140.5939  140.4616  166.4309 C.2     1  UNL1        0.0537
     25 C         139.3863  139.8731  167.0985 C.2     1  UNL1        0.0714
     26 C         138.3716  139.1233  166.2873 C.2     1  UNL1       -0.0133
     27 C         138.5644  138.9619  164.8085 C.3     1  UNL1        0.1037
     28 C         139.7719  139.5503  164.1409 C.2     1  UNL1        0.2178
     29 N         140.2272  139.5530  162.7117 N.2     1  UNL1       -0.0347
     30 C         139.1935  140.0346  168.5773 C.3     1  UNL1        0.4184
     31 F         139.0008  140.1960  170.0560 F       1  UNL1       -0.1659
     32 F         137.9199  139.2463  168.4973 F       1  UNL1       -0.1659
     33 F         140.4672  140.8229  168.6572 F       1  UNL1       -0.1659
@<TRIPOS>UNITY_ATOM_ATTR
18 1
charge -1
@<TRIPOS>BOND
     1    18    19   ar
     2    19    20   ar
     3    19    17    1
     4    17     7    1
     5     7     8    1
     6     8     9    1
     7     9    10    1
     8    10    11    1
     9    11    12    1
    10    12    13    1
    11    13     1    1
    12     1     2   ar
    13     2     3   ar
    14     3     4   ar
    15     4    21    1
    16    21    22    2
    17    22    23    1
    18    23    24    2
    19    24    25    1
    20    25    30    1
    21    30    31    1
    22    30    32    1
    23    30    33    1
    24    25    26    2
    25    26    27    1
    26    27    28    1
    27    28    29    2
    28     4     5   ar
    29     5     6   ar
    30    13    14    1
    31    14    15    1
    32    10    16    1
    33    16     7    1
    34    15    10    1
    35     6     1   ar
    36    29    21    1
    37    28    23    1
@<TRIPOS>MOLECULE
*****
 33 37 0 0 0
SMALL
GASTEIGER

@<TRIPOS>ATOM
      1 C         141.3326  137.2777  156.9969 C.ar    1  UNL1        0.1317
      2 C         142.4554  138.0115  157.6682 C.ar    1  UNL1        0.0346
      3 C         142.1599  139.1806  158.5604 C.ar    1  UNL1        0.0121
      4 C         140.7415  139.6158  158.7812 C.ar    1  UNL1        0.1076
      5 C         139.6186  138.8819  158.1099 C.ar    1  UNL1        0.1080
      6 N         139.9142  137.7128  157.2177 N.ar    1  UNL1       -0.2289
      7 C         143.1369  131.6918  153.4672 C.3     1  UNL1        0.1206
      8 C         142.2112  132.2511  152.4277 C.3     1  UNL1        0.0323
      9 C         141.6441  133.5358  152.9550 C.3     1  UNL1        0.0298
     10 C         142.2192  133.7705  154.3204 C.3     1  UNL1        0.0960
     11 C         141.2699  134.8394  153.8663 C.3     1  UNL1        0.0487
     12 C         140.9743  136.0084  154.7584 C.3     1  UNL1        0.0946
     13 N         141.6282  136.1086  156.1047 N.pl3   1  UNL1       -0.2931
     14 C         142.5776  135.0397  156.5588 C.3     1  UNL1        0.0946
     15 C         142.8731  133.8707  155.6666 C.3     1  UNL1        0.0487
     16 O         143.1418  132.6309  154.6369 O.3     1  UNL1       -0.3605
     17 C         143.9200  130.4174  153.3564 C.3     1  UNL1        0.0712
     18 O         145.1300  130.2337  155.6480 O.co2   1  UNL1       -0.5491
     19 C         144.2532  129.6322  154.5902 C.2     1  UNL1        0.0528
     20 O         143.7095  128.2453  154.7662 O.co2   1  UNL1       -0.5491
     21 C         140.4459  140.7848  159.6734 C.2     1  UNL1        0.3767
     22 N         139.9951  140.7117  161.1021 N.2     1  UNL1       -0.0308
     23 C         139.8198  142.1139  161.6052 C.2     1  UNL1        0.2320
     24 C         139.3926  142.6565  162.9368 C.2     1  UNL1        0.0537
     25 C         139.3078  144.1388  163.1505 C.2     1  UNL1        0.0714
     26 C         139.6502  145.0785  162.0326 C.2     1  UNL1       -0.0133
     27 C         140.0773  144.5359  160.7010 C.3     1  UNL1        0.1037
     28 C         140.1622  143.0537  160.4873 C.2     1  UNL1        0.2178
     29 N         140.5491  142.2322  159.2934 N.2     1  UNL1       -0.0347
     30 C         138.8806  144.6814  164.4821 C.3     1  UNL1        0.4184
     31 F         138.4534  145.2239  165.8136 F       1  UNL1       -0.1659
     32 F         140.3070  145.0163  164.8032 F       1  UNL1       -0.1659
     33 F         137.4542  144.3465  164.1609 F       1  UNL1       -0.1659
@<TRIPOS>UNITY_ATOM_ATTR
18 1
charge -1
@<TRIPOS>BOND
     1    18    19   ar
     2    19    20   ar
     3    19    17    1
     4    17     7    1
     5     7     8    1
     6     8     9    1
     7     9    10    1
     8    10    11    1
     9    11    12    1
    10    12    13    1
    11    13     1    1
    12     1     2   ar
    13     2     3   ar
    14     3     4   ar
    15     4    21    1
    16    21    22    2
    17    22    23    1
    18    23    24    2
    19    24    25    1
    20    25    30    1
    21    30    31    1
    22    30    32    1
    23    30    33    1
    24    25    26    2
    25    26    27    1
    26    27    28    1
    27    28    29    2
    28     4     5   ar
    29     5     6   ar
    30    13    14    1
    31    14    15    1
    32    10    16    1
    33    16     7    1
    34    15    10    1
    35     6     1   ar
    36    29    21    1
    37    28    23    1
@<TRIPOS>MOLECULE
*****
 33 37 0 0 0
SMALL
GASTEIGER

@<TRIPOS>ATOM
      1 C         141.5013  138.5911  160.3338 C.ar    1  UNL1        0.1317
      2 C         142.8309  138.7131  161.0172 C.ar    1  UNL1        0.0346
      3 C         142.9029  139.1853  162.4392 C.ar    1  UNL1        0.0121
      4 C         141.6451  139.5354  163.1777 C.ar    1  UNL1        0.1076
      5 C         140.3154  139.4134  162.4943 C.ar    1  UNL1        0.1080
      6 N         140.2435  138.9413  161.0724 N.ar    1  UNL1       -0.2289
      7 C         140.4393  136.5946  153.8684 C.3     1  UNL1        0.1206
      8 C         141.9103  136.3017  153.8912 C.3     1  UNL1        0.0323
      9 C         142.4333  136.6602  155.2507 C.3     1  UNL1        0.0298
     10 C         141.2855  137.1747  156.0680 C.3     1  UNL1        0.0960
     11 C         142.5953  137.1571  156.7988 C.3     1  UNL1        0.0487
     12 C         142.6672  137.6292  158.2207 C.3     1  UNL1        0.0946
     13 N         141.4293  138.1190  158.9119 N.pl3   1  UNL1       -0.2931
     14 C         140.1195  138.1366  158.1811 C.3     1  UNL1        0.0946
     15 C         140.0476  137.6645  156.7592 C.3     1  UNL1        0.0487
     16 O         140.0532  137.1342  155.2137 O.3     1  UNL1       -0.3605
     17 C         139.5166  136.3849  152.7046 C.3     1  UNL1        0.0712
     18 O         138.2395  138.6435  152.8360 O.co2   1  UNL1       -0.5491
     19 C         138.2357  137.1601  152.6139 C.2     1  UNL1        0.0528
     20 O         136.9509  136.4519  152.3010 O.co2   1  UNL1       -0.5491
     21 C         141.7170  140.0075  164.5997 C.2     1  UNL1        0.3767
     22 N         142.6086  141.0939  165.1239 N.2     1  UNL1       -0.0308
     23 C         142.3526  141.2340  166.5952 C.2     1  UNL1        0.2320
     24 C         142.9398  142.1427  167.6341 C.2     1  UNL1        0.0537
     25 C         142.4771  142.0517  169.0582 C.2     1  UNL1        0.0714
     26 C         141.4273  141.0520  169.4432 C.2     1  UNL1       -0.0133
     27 C         140.8400  140.1432  168.4043 C.3     1  UNL1        0.1037
     28 C         141.3027  140.2342  166.9803 C.2     1  UNL1        0.2178
     29 N         140.9099  139.4762  165.7470 N.2     1  UNL1       -0.0347
     30 C         143.0643  142.9605  170.0971 C.3     1  UNL1        0.4184
     31 F         143.6515  143.8693  171.1360 F       1  UNL1       -0.1659
     32 F         144.3585  142.2056  170.0259 F       1  UNL1       -0.1659
     33 F         141.7701  143.7155  170.1682 F       1  UNL1       -0.1659
@<TRIPOS>UNITY_ATOM_ATTR
18 1
charge -1
@<TRIPOS>BOND
     1    18    19   ar
     2    19    20   ar
     3    19    17    1
     4    17     7    1
     5     7     8    1
     6     8     9    1
     7     9    10    1
     8    10    11    1
     9    11    12    1
    10    12    13    1
    11    13     1    1
    12     1     2   ar
    13     2     3   ar
    14     3     4   ar
    15     4    21    1
    16    21    22    2
    17    22    23    1
    18    23    24    2
    19    24    25    1
    20    25    30    1
    21    30    31    1
    22    30    32    1
    23    30    33    1
    24    25    26    2
    25    26    27    1
    26    27    28    1
    27    28    29    2
    28     4     5   ar
    29     5     6   ar
    30    13    14    1
    31    14    15    1
    32    10    16    1
    33    16     7    1
    34    15    10    1
    35     6     1   ar
    36    29    21    1
    37    28    23    1
