@<TRIPOS>MOLECULE
*****
 28 30 0 0 0
SMALL
GASTEIGER

@<TRIPOS>ATOM
      1 O         141.8674  140.6335  164.6078 O.2     1  UNL1       -0.2521
      2 C         142.5572  139.4343  165.1876 C.2     1  UNL1        0.3093
      3 N         142.6171  139.2499  166.6750 N.am    1  UNL1       -0.2680
      4 N         143.1871  138.4196  164.2800 N.am    1  UNL1       -0.2496
      5 H         143.0699  138.4629  167.0556 H       1  UNL1        0.1564
      6 H         143.6398  137.6325  164.6606 H       1  UNL1        0.1580
      7 C         141.9873  140.2647  167.5826 C.ar    1  UNL1        0.0525
      8 C         142.6297  141.6076  167.7666 C.ar    1  UNL1        0.0156
      9 C         141.9998  142.6222  168.6741 C.ar    1  UNL1        0.0135
     10 C         140.7276  142.2940  169.3977 C.ar    1  UNL1        0.0683
     11 CL        140.0977  143.3087  170.3053 Cl      1  UNL1       -0.0814
     12 C         140.0852  140.9511  169.2137 C.ar    1  UNL1        0.0694
     13 CL        138.8129  140.6228  169.9373 Cl      1  UNL1       -0.0813
     14 C         140.7150  139.9364  168.3062 C.ar    1  UNL1        0.0270
     15 C         143.1271  138.6040  162.7927 C.ar    1  UNL1        0.1895
     16 N         144.1631  139.4371  162.0979 N.ar    1  UNL1       -0.2229
     17 C         144.1032  139.6215  160.6105 C.ar    1  UNL1        0.1212
     18 C         143.0072  138.9729  159.8178 C.ar    1  UNL1        0.1228
     19 N         141.9713  138.1398  160.5126 N.ar    1  UNL1       -0.2061
     20 C         142.0312  137.9554  162.0001 C.ar    1  UNL1        0.2581
     21 O         140.9953  137.1223  162.6949 O.3     1  UNL1       -0.4533
     22 C         139.5713  137.5904  162.7521 C.3     1  UNL1        0.2338
     23 C         138.9935  138.0780  164.0476 C.ar    1  UNL1        0.0212
     24 C         138.7163  139.5392  164.2424 C.ar    1  UNL1       -0.0007
     25 C         138.1386  140.0269  165.5379 C.ar    1  UNL1       -0.0002
     26 C         137.8380  139.0533  166.6387 C.ar    1  UNL1       -0.0000
     27 C         138.1152  137.5920  166.4439 C.ar    1  UNL1       -0.0002
     28 C         138.6929  137.1044  165.1484 C.ar    1  UNL1       -0.0007
@<TRIPOS>BOND
     1     1     2    2
     2     2     3   am
     3     3     7    1
     4     7     8   ar
     5     8     9   ar
     6     9    10   ar
     7    10    11    1
     8    10    12   ar
     9    12    13    1
    10    12    14   ar
    11     2     4   am
    12     4    15    1
    13    15    16   ar
    14    16    17   ar
    15    17    18   ar
    16    18    19   ar
    17    19    20   ar
    18    20    21    1
    19    21    22    1
    20    22    23    1
    21    23    24   ar
    22    24    25   ar
    23    25    26   ar
    24    26    27   ar
    25    27    28   ar
    26    14     7   ar
    27    20    15   ar
    28    28    23   ar
    29     3     5    1
    30     4     6    1
@<TRIPOS>MOLECULE
*****
 28 30 0 0 0
SMALL
GASTEIGER

@<TRIPOS>ATOM
      1 O         141.0542  142.3659  164.8666 O.2     1  UNL1       -0.2521
      2 C         140.1195  143.3555  165.4967 C.2     1  UNL1        0.3093
      3 N         139.9174  143.3551  166.9830 N.am    1  UNL1       -0.2680
      4 N         139.3868  144.3455  164.6404 N.am    1  UNL1       -0.2496
      5 H         139.3039  144.0046  167.3966 H       1  UNL1        0.1564
      6 H         138.7733  144.9950  165.0540 H       1  UNL1        0.1580
      7 C         140.6501  142.3651  167.8393 C.ar    1  UNL1        0.0525
      8 C         140.0576  141.0109  168.0944 C.ar    1  UNL1        0.0156
      9 C         140.7902  140.0210  168.9507 C.ar    1  UNL1        0.0135
     10 C         142.1154  140.3852  169.5518 C.ar    1  UNL1        0.0683
     11 CL        142.8480  139.3952  170.4081 Cl      1  UNL1       -0.0814
     12 C         142.7079  141.7394  169.2967 C.ar    1  UNL1        0.0694
     13 CL        144.0330  142.1036  169.8978 Cl      1  UNL1       -0.0813
     14 C         141.9752  142.7293  168.4404 C.ar    1  UNL1        0.0270
     15 C         139.5889  144.3459  163.1541 C.ar    1  UNL1        0.1895
     16 N         140.6467  145.2151  162.5413 N.ar    1  UNL1       -0.2229
     17 C         140.8487  145.2155  161.0550 C.ar    1  UNL1        0.1212
     18 C         139.9930  144.3467  160.1815 C.ar    1  UNL1        0.1228
     19 N         138.9352  143.4775  160.7943 N.ar    1  UNL1       -0.2061
     20 C         138.7331  143.4771  162.2807 C.ar    1  UNL1        0.2581
     21 O         137.6754  142.6079  162.8936 O.3     1  UNL1       -0.4533
     22 C         137.5022  141.1936  162.4246 C.3     1  UNL1        0.2338
     23 C         138.0007  140.0576  163.2678 C.ar    1  UNL1        0.0212
     24 C         138.0634  140.2019  164.7595 C.ar    1  UNL1       -0.0007
     25 C         138.5618  139.0659  165.6026 C.ar    1  UNL1       -0.0002
     26 C         138.9975  137.7854  164.9541 C.ar    1  UNL1       -0.0000
     27 C         138.9348  137.6410  163.4623 C.ar    1  UNL1       -0.0002
     28 C         138.4364  138.7771  162.6192 C.ar    1  UNL1       -0.0007
@<TRIPOS>BOND
     1     1     2    2
     2     2     3   am
     3     3     7    1
     4     7     8   ar
     5     8     9   ar
     6     9    10   ar
     7    10    11    1
     8    10    12   ar
     9    12    13    1
    10    12    14   ar
    11     2     4   am
    12     4    15    1
    13    15    16   ar
    14    16    17   ar
    15    17    18   ar
    16    18    19   ar
    17    19    20   ar
    18    20    21    1
    19    21    22    1
    20    22    23    1
    21    23    24   ar
    22    24    25   ar
    23    25    26   ar
    24    26    27   ar
    25    27    28   ar
    26    14     7   ar
    27    20    15   ar
    28    28    23   ar
    29     3     5    1
    30     4     6    1
@<TRIPOS>MOLECULE
*****
 28 30 0 0 0
SMALL
GASTEIGER

@<TRIPOS>ATOM
      1 O         140.4589  141.7798  160.7807 O.2     1  UNL1       -0.2521
      2 C         139.0664  142.3133  160.6183 C.2     1  UNL1        0.3093
      3 N         137.9395  141.7224  161.4126 N.am    1  UNL1       -0.2680
      4 N         138.8008  143.4376  159.6615 N.am    1  UNL1       -0.2496
      5 H         137.0256  142.0725  161.3060 H       1  UNL1        0.1564
      6 H         137.8868  143.7877  159.5549 H       1  UNL1        0.1580
      7 C         138.2051  140.5980  162.3694 C.ar    1  UNL1        0.0525
      8 C         138.3052  139.1898  161.8626 C.ar    1  UNL1        0.0156
      9 C         138.5708  138.0655  162.8193 C.ar    1  UNL1        0.0135
     10 C         138.7364  138.3495  164.2829 C.ar    1  UNL1        0.0683
     11 CL        139.0020  137.2251  165.2396 Cl      1  UNL1       -0.0814
     12 C         138.6363  139.7577  164.7897 C.ar    1  UNL1        0.0694
     13 CL        138.8019  140.0416  166.2532 Cl      1  UNL1       -0.0813
     14 C         138.3707  140.8819  163.8329 C.ar    1  UNL1        0.0270
     15 C         139.9276  144.0285  158.8672 C.ar    1  UNL1        0.1895
     16 N         140.1468  143.6033  157.4455 N.ar    1  UNL1       -0.2229
     17 C         141.2737  144.1942  156.6512 C.ar    1  UNL1        0.1212
     18 C         142.1814  145.2103  157.2786 C.ar    1  UNL1        0.1228
     19 N         141.9623  145.6355  158.7002 N.ar    1  UNL1       -0.2061
     20 C         140.8353  145.0446  159.4946 C.ar    1  UNL1        0.2581
     21 O         140.6162  145.4698  160.9162 O.3     1  UNL1       -0.4533
     22 C         141.4670  144.8960  162.0103 C.3     1  UNL1        0.2338
     23 C         140.8387  144.4719  163.3047 C.ar    1  UNL1        0.0212
     24 C         139.4797  144.9828  163.6816 C.ar    1  UNL1       -0.0007
     25 C         138.8514  144.5587  164.9760 C.ar    1  UNL1       -0.0002
     26 C         139.5822  143.6238  165.8935 C.ar    1  UNL1       -0.0000
     27 C         140.9413  143.1129  165.5167 C.ar    1  UNL1       -0.0002
     28 C         141.5695  143.5369  164.2223 C.ar    1  UNL1       -0.0007
@<TRIPOS>BOND
     1     1     2    2
     2     2     3   am
     3     3     7    1
     4     7     8   ar
     5     8     9   ar
     6     9    10   ar
     7    10    11    1
     8    10    12   ar
     9    12    13    1
    10    12    14   ar
    11     2     4   am
    12     4    15    1
    13    15    16   ar
    14    16    17   ar
    15    17    18   ar
    16    18    19   ar
    17    19    20   ar
    18    20    21    1
    19    21    22    1
    20    22    23    1
    21    23    24   ar
    22    24    25   ar
    23    25    26   ar
    24    26    27   ar
    25    27    28   ar
    26    14     7   ar
    27    20    15   ar
    28    28    23   ar
    29     3     5    1
    30     4     6    1
@<TRIPOS>MOLECULE
*****
 28 30 0 0 0
SMALL
GASTEIGER

@<TRIPOS>ATOM
      1 O         142.4250  141.6519  165.3320 O.2     1  UNL1       -0.2521
      2 C         143.4200  142.6085  165.9193 C.2     1  UNL1        0.3093
      3 N         143.4996  142.7888  167.4062 N.am    1  UNL1       -0.2680
      4 N         144.3355  143.3847  165.0195 N.am    1  UNL1       -0.2496
      5 H         144.1527  143.4167  167.7917 H       1  UNL1        0.1564
      6 H         144.9885  144.0126  165.4049 H       1  UNL1        0.1580
      7 C         142.5842  142.0126  168.3060 C.ar    1  UNL1        0.0525
      8 C         141.2581  142.5892  168.7046 C.ar    1  UNL1        0.0156
      9 C         140.3427  141.8130  169.6043 C.ar    1  UNL1        0.0135
     10 C         140.7535  140.4601  170.1054 C.ar    1  UNL1        0.0683
     11 CL        139.8380  139.6839  171.0052 Cl      1  UNL1       -0.0814
     12 C         142.0796  139.8835  169.7068 C.ar    1  UNL1        0.0694
     13 CL        142.4903  138.5307  170.2079 Cl      1  UNL1       -0.0813
     14 C         142.9949  140.6598  168.8071 C.ar    1  UNL1        0.0270
     15 C         144.2558  143.2044  163.5325 C.ar    1  UNL1        0.1895
     16 N         145.0045  142.0852  162.8716 N.ar    1  UNL1       -0.2229
     17 C         144.9249  141.9048  161.3847 C.ar    1  UNL1        0.1212
     18 C         144.0966  142.8437  160.5585 C.ar    1  UNL1        0.1228
     19 N         143.3479  143.9630  161.2195 N.ar    1  UNL1       -0.2061
     20 C         143.4276  144.1433  162.7065 C.ar    1  UNL1        0.2581
     21 O         142.6789  145.2625  163.3674 O.3     1  UNL1       -0.4533
     22 C         141.2879  145.6016  162.9197 C.3     1  UNL1        0.2338
     23 C         140.1200  144.8191  163.4428 C.ar    1  UNL1        0.0212
     24 C         140.2105  144.1374  164.7758 C.ar    1  UNL1       -0.0007
     25 C         139.0426  143.3549  165.2989 C.ar    1  UNL1       -0.0002
     26 C         137.7842  143.2540  164.4889 C.ar    1  UNL1       -0.0000
     27 C         137.6936  143.9357  163.1558 C.ar    1  UNL1       -0.0002
     28 C         138.8615  144.7182  162.6327 C.ar    1  UNL1       -0.0007
@<TRIPOS>BOND
     1     1     2    2
     2     2     3   am
     3     3     7    1
     4     7     8   ar
     5     8     9   ar
     6     9    10   ar
     7    10    11    1
     8    10    12   ar
     9    12    13    1
    10    12    14   ar
    11     2     4   am
    12     4    15    1
    13    15    16   ar
    14    16    17   ar
    15    17    18   ar
    16    18    19   ar
    17    19    20   ar
    18    20    21    1
    19    21    22    1
    20    22    23    1
    21    23    24   ar
    22    24    25   ar
    23    25    26   ar
    24    26    27   ar
    25    27    28   ar
    26    14     7   ar
    27    20    15   ar
    28    28    23   ar
    29     3     5    1
    30     4     6    1
@<TRIPOS>MOLECULE
*****
 28 30 0 0 0
SMALL
GASTEIGER

@<TRIPOS>ATOM
      1 O         140.9896  142.0353  164.5350 O.2     1  UNL1       -0.2521
      2 C         140.3162  143.1772  165.2370 C.2     1  UNL1        0.3093
      3 N         140.2299  143.1909  166.7344 N.am    1  UNL1       -0.2680
      4 N         139.7292  144.3053  164.4414 N.am    1  UNL1       -0.2496
      5 H         139.7880  143.9404  167.1951 H       1  UNL1        0.1564
      6 H         139.2872  145.0547  164.9022 H       1  UNL1        0.1580
      7 C         140.8170  142.0628  167.5299 C.ar    1  UNL1        0.0525
      8 C         142.1514  141.4925  167.1505 C.ar    1  UNL1        0.0156
      9 C         142.7384  140.3644  167.9461 C.ar    1  UNL1        0.0135
     10 C         141.9910  139.8067  169.1209 C.ar    1  UNL1        0.0683
     11 CL        142.5781  138.6786  169.9165 Cl      1  UNL1       -0.0814
     12 C         140.6566  140.3771  169.5003 C.ar    1  UNL1        0.0694
     13 CL        139.9092  139.8194  170.6752 Cl      1  UNL1       -0.0813
     14 C         140.0696  141.5051  168.7048 C.ar    1  UNL1        0.0270
     15 C         139.8155  144.2915  162.9440 C.ar    1  UNL1        0.1895
     16 N         140.8875  145.0759  162.2473 N.ar    1  UNL1       -0.2229
     17 C         140.9738  145.0621  160.7499 C.ar    1  UNL1        0.1212
     18 C         139.9880  144.2639  159.9491 C.ar    1  UNL1        0.1228
     19 N         138.9159  143.4795  160.6458 N.ar    1  UNL1       -0.2061
     20 C         138.8297  143.4933  162.1433 C.ar    1  UNL1        0.2581
     21 O         137.7576  142.7090  162.8401 O.3     1  UNL1       -0.4533
     22 C         137.5581  141.2583  162.5146 C.3     1  UNL1        0.2338
     23 C         138.0279  140.2034  163.4719 C.ar    1  UNL1        0.0212
     24 C         138.5134  138.8824  162.9531 C.ar    1  UNL1       -0.0007
     25 C         138.9832  137.8275  163.9104 C.ar    1  UNL1       -0.0002
     26 C         138.9676  138.0936  165.3865 C.ar    1  UNL1       -0.0000
     27 C         138.4822  139.4146  165.9053 C.ar    1  UNL1       -0.0002
     28 C         138.0123  140.4696  164.9481 C.ar    1  UNL1       -0.0007
@<TRIPOS>BOND
     1     1     2    2
     2     2     3   am
     3     3     7    1
     4     7     8   ar
     5     8     9   ar
     6     9    10   ar
     7    10    11    1
     8    10    12   ar
     9    12    13    1
    10    12    14   ar
    11     2     4   am
    12     4    15    1
    13    15    16   ar
    14    16    17   ar
    15    17    18   ar
    16    18    19   ar
    17    19    20   ar
    18    20    21    1
    19    21    22    1
    20    22    23    1
    21    23    24   ar
    22    24    25   ar
    23    25    26   ar
    24    26    27   ar
    25    27    28   ar
    26    14     7   ar
    27    20    15   ar
    28    28    23   ar
    29     3     5    1
    30     4     6    1
@<TRIPOS>MOLECULE
*****
 28 30 0 0 0
SMALL
GASTEIGER

@<TRIPOS>ATOM
      1 O         142.1979  139.8354  165.0016 O.2     1  UNL1       -0.2521
      2 C         142.1585  141.1792  164.3364 C.2     1  UNL1        0.3093
      3 N         141.9790  142.4193  165.1610 N.am    1  UNL1       -0.2680
      4 N         142.2985  141.2829  162.8465 N.am    1  UNL1       -0.2496
      5 H         141.9531  143.3013  164.7243 H       1  UNL1        0.1564
      6 H         142.2726  142.1649  162.4099 H       1  UNL1        0.1580
      7 C         141.8390  142.3155  166.6509 C.ar    1  UNL1        0.0525
      8 C         140.4821  142.1422  167.2664 C.ar    1  UNL1        0.0156
      9 C         140.3422  142.0385  168.7562 C.ar    1  UNL1        0.0135
     10 C         141.5590  142.1081  169.6305 C.ar    1  UNL1        0.0683
     11 CL        141.4190  142.0044  171.1204 Cl      1  UNL1       -0.0814
     12 C         142.9159  142.2814  169.0150 C.ar    1  UNL1        0.0694
     13 CL        144.1327  142.3510  169.8893 Cl      1  UNL1       -0.0813
     14 C         143.0558  142.3851  167.5252 C.ar    1  UNL1        0.0270
     15 C         142.4780  140.0429  162.0219 C.ar    1  UNL1        0.1895
     16 N         143.7869  139.3106  162.0437 N.ar    1  UNL1       -0.2229
     17 C         143.9664  138.0706  161.2191 C.ar    1  UNL1        0.1212
     18 C         142.8369  137.5627  160.3727 C.ar    1  UNL1        0.1228
     19 N         141.5280  138.2949  160.3509 N.ar    1  UNL1       -0.2061
     20 C         141.3485  139.5350  161.1756 C.ar    1  UNL1        0.2581
     21 O         140.0396  140.2673  161.1538 O.3     1  UNL1       -0.4533
     22 C         138.8009  139.6051  161.6806 C.3     1  UNL1        0.2338
     23 C         138.7005  139.2509  163.1347 C.ar    1  UNL1        0.0212
     24 C         138.2515  140.2810  164.1283 C.ar    1  UNL1       -0.0007
     25 C         138.1511  139.9267  165.5824 C.ar    1  UNL1       -0.0002
     26 C         138.4996  138.5424  166.0429 C.ar    1  UNL1       -0.0000
     27 C         138.9486  137.5122  165.0493 C.ar    1  UNL1       -0.0002
     28 C         139.0491  137.8665  163.5952 C.ar    1  UNL1       -0.0007
@<TRIPOS>BOND
     1     1     2    2
     2     2     3   am
     3     3     7    1
     4     7     8   ar
     5     8     9   ar
     6     9    10   ar
     7    10    11    1
     8    10    12   ar
     9    12    13    1
    10    12    14   ar
    11     2     4   am
    12     4    15    1
    13    15    16   ar
    14    16    17   ar
    15    17    18   ar
    16    18    19   ar
    17    19    20   ar
    18    20    21    1
    19    21    22    1
    20    22    23    1
    21    23    24   ar
    22    24    25   ar
    23    25    26   ar
    24    26    27   ar
    25    27    28   ar
    26    14     7   ar
    27    20    15   ar
    28    28    23   ar
    29     3     5    1
    30     4     6    1
@<TRIPOS>MOLECULE
*****
 28 30 0 0 0
SMALL
GASTEIGER

@<TRIPOS>ATOM
      1 O         141.8423  140.5760  165.3137 O.2     1  UNL1       -0.2521
      2 C         142.5538  139.4026  165.9195 C.2     1  UNL1        0.3093
      3 N         142.5401  139.2030  167.4060 N.am    1  UNL1       -0.2680
      4 N         143.2790  138.4288  165.0386 N.am    1  UNL1       -0.2496
      5 H         143.0071  138.4329  167.8036 H       1  UNL1        0.1564
      6 H         143.7460  137.6586  165.4362 H       1  UNL1        0.1580
      7 C         141.8150  140.1769  168.2869 C.ar    1  UNL1        0.0525
      8 C         140.3348  140.0451  168.4913 C.ar    1  UNL1        0.0156
      9 C         139.6097  141.0189  169.3721 C.ar    1  UNL1        0.0135
     10 C         140.3648  142.1245  170.0486 C.ar    1  UNL1        0.0683
     11 CL        139.6396  143.0983  170.9294 Cl      1  UNL1       -0.0814
     12 C         141.8449  142.2562  169.8442 C.ar    1  UNL1        0.0694
     13 CL        142.5999  143.3618  170.5207 Cl      1  UNL1       -0.0813
     14 C         142.5700  141.2824  168.9634 C.ar    1  UNL1        0.0270
     15 C         143.2926  138.6284  163.5520 C.ar    1  UNL1        0.1895
     16 N         142.2734  137.9399  162.6934 N.ar    1  UNL1       -0.2229
     17 C         142.2871  138.1394  161.2069 C.ar    1  UNL1        0.1212
     18 C         143.3200  139.0276  160.5788 C.ar    1  UNL1        0.1228
     19 N         144.3392  139.7160  161.4374 N.ar    1  UNL1       -0.2061
     20 C         144.3255  139.5164  162.9240 C.ar    1  UNL1        0.2581
     21 O         145.3448  140.2049  163.7826 O.3     1  UNL1       -0.4533
     22 C         145.8122  141.5861  163.4305 C.3     1  UNL1        0.2338
     23 C         144.8536  142.7387  163.4840 C.ar    1  UNL1        0.0212
     24 C         144.2033  143.2324  162.2257 C.ar    1  UNL1       -0.0007
     25 C         143.2448  144.3849  162.2792 C.ar    1  UNL1       -0.0002
     26 C         142.9365  145.0437  163.5910 C.ar    1  UNL1       -0.0000
     27 C         143.5868  144.5500  164.8494 C.ar    1  UNL1       -0.0002
     28 C         144.5453  143.3975  164.7959 C.ar    1  UNL1       -0.0007
@<TRIPOS>BOND
     1     1     2    2
     2     2     3   am
     3     3     7    1
     4     7     8   ar
     5     8     9   ar
     6     9    10   ar
     7    10    11    1
     8    10    12   ar
     9    12    13    1
    10    12    14   ar
    11     2     4   am
    12     4    15    1
    13    15    16   ar
    14    16    17   ar
    15    17    18   ar
    16    18    19   ar
    17    19    20   ar
    18    20    21    1
    19    21    22    1
    20    22    23    1
    21    23    24   ar
    22    24    25   ar
    23    25    26   ar
    24    26    27   ar
    25    27    28   ar
    26    14     7   ar
    27    20    15   ar
    28    28    23   ar
    29     3     5    1
    30     4     6    1
@<TRIPOS>MOLECULE
*****
 28 30 0 0 0
SMALL
GASTEIGER

@<TRIPOS>ATOM
      1 O         140.2563  141.1521  163.3069 O.2     1  UNL1       -0.2521
      2 C         139.1240  142.0307  163.7498 C.2     1  UNL1        0.3093
      3 N         138.9348  142.3330  165.2067 N.am    1  UNL1       -0.2680
      4 N         138.1810  142.6071  162.7356 N.am    1  UNL1       -0.2496
      5 H         138.1917  142.9096  165.4974 H       1  UNL1        0.1564
      6 H         137.4379  143.1838  163.0262 H       1  UNL1        0.1580
      7 C         139.8778  141.7566  166.2210 C.ar    1  UNL1        0.0525
      8 C         139.5108  140.5037  166.9595 C.ar    1  UNL1        0.0156
      9 C         140.4538  139.9274  167.9736 C.ar    1  UNL1        0.0135
     10 C         141.7638  140.6040  168.2492 C.ar    1  UNL1        0.0683
     11 CL        142.7069  140.0276  169.2635 Cl      1  UNL1       -0.0814
     12 C         142.1309  141.8569  167.5107 C.ar    1  UNL1        0.0694
     13 CL        143.4409  142.5335  167.7864 Cl      1  UNL1       -0.0813
     14 C         141.1879  142.4332  166.4966 C.ar    1  UNL1        0.0270
     15 C         138.3702  142.3049  161.2786 C.ar    1  UNL1        0.1895
     16 N         138.9490  143.3451  160.3658 N.ar    1  UNL1       -0.2229
     17 C         139.1382  143.0428  158.9089 C.ar    1  UNL1        0.1212
     18 C         138.7487  141.7004  158.3646 C.ar    1  UNL1        0.1228
     19 N         138.1699  140.6602  159.2773 N.ar    1  UNL1       -0.2061
     20 C         137.9807  140.9625  160.7344 C.ar    1  UNL1        0.2581
     21 O         137.4019  139.9224  161.6471 O.3     1  UNL1       -0.4533
     22 C         137.9252  138.5170  161.6099 C.3     1  UNL1        0.2338
     23 C         139.0273  138.1022  162.5391 C.ar    1  UNL1        0.0212
     24 C         138.7495  137.9318  164.0032 C.ar    1  UNL1       -0.0007
     25 C         139.8516  137.5171  164.9324 C.ar    1  UNL1       -0.0002
     26 C         141.2315  137.2726  164.3974 C.ar    1  UNL1       -0.0000
     27 C         141.5093  137.4430  162.9331 C.ar    1  UNL1       -0.0002
     28 C         140.4072  137.8578  162.0040 C.ar    1  UNL1       -0.0007
@<TRIPOS>BOND
     1     1     2    2
     2     2     3   am
     3     3     7    1
     4     7     8   ar
     5     8     9   ar
     6     9    10   ar
     7    10    11    1
     8    10    12   ar
     9    12    13    1
    10    12    14   ar
    11     2     4   am
    12     4    15    1
    13    15    16   ar
    14    16    17   ar
    15    17    18   ar
    16    18    19   ar
    17    19    20   ar
    18    20    21    1
    19    21    22    1
    20    22    23    1
    21    23    24   ar
    22    24    25   ar
    23    25    26   ar
    24    26    27   ar
    25    27    28   ar
    26    14     7   ar
    27    20    15   ar
    28    28    23   ar
    29     3     5    1
    30     4     6    1
@<TRIPOS>MOLECULE
*****
 28 30 0 0 0
SMALL
GASTEIGER

@<TRIPOS>ATOM
      1 O         140.2565  140.7862  164.7498 O.2     1  UNL1       -0.2521
      2 C         139.7762  139.4749  165.2975 C.2     1  UNL1        0.3093
      3 N         139.9638  139.1554  166.7510 N.am    1  UNL1       -0.2680
      4 N         139.1083  138.4832  164.3917 N.am    1  UNL1       -0.2496
      5 H         139.6486  138.2948  167.1105 H       1  UNL1        0.1564
      6 H         138.7931  137.6226  164.7512 H       1  UNL1        0.1580
      7 C         140.6317  140.1472  167.6569 C.ar    1  UNL1        0.0525
      8 C         142.1173  140.3429  167.5893 C.ar    1  UNL1        0.0156
      9 C         142.7851  141.3346  168.4951 C.ar    1  UNL1        0.0135
     10 C         141.9672  142.1306  169.4685 C.ar    1  UNL1        0.0683
     11 CL        142.6351  143.1224  170.3743 Cl      1  UNL1       -0.0814
     12 C         140.4816  141.9350  169.5360 C.ar    1  UNL1        0.0694
     13 CL        139.6638  142.7310  170.5094 Cl      1  UNL1       -0.0813
     14 C         139.8138  140.9432  168.6302 C.ar    1  UNL1        0.0270
     15 C         138.9208  138.8027  162.9382 C.ar    1  UNL1        0.1895
     16 N         137.7789  139.6725  162.5028 N.ar    1  UNL1       -0.2229
     17 C         137.5913  139.9920  161.0493 C.ar    1  UNL1        0.1212
     18 C         138.5456  139.4417  160.0311 C.ar    1  UNL1        0.1228
     19 N         139.6875  138.5719  160.4666 N.ar    1  UNL1       -0.2061
     20 C         139.8750  138.2524  161.9201 C.ar    1  UNL1        0.2581
     21 O         141.0169  137.3826  162.3556 O.3     1  UNL1       -0.4533
     22 C         142.4082  137.6766  161.8781 C.3     1  UNL1        0.2338
     23 C         143.2384  138.7113  162.5783 C.ar    1  UNL1        0.0212
     24 C         143.2946  138.7393  164.0770 C.ar    1  UNL1       -0.0007
     25 C         144.1248  139.7739  164.7772 C.ar    1  UNL1       -0.0002
     26 C         144.8987  140.7806  163.9787 C.ar    1  UNL1       -0.0000
     27 C         144.8425  140.7527  162.4800 C.ar    1  UNL1       -0.0002
     28 C         144.0123  139.7180  161.7798 C.ar    1  UNL1       -0.0007
@<TRIPOS>BOND
     1     1     2    2
     2     2     3   am
     3     3     7    1
     4     7     8   ar
     5     8     9   ar
     6     9    10   ar
     7    10    11    1
     8    10    12   ar
     9    12    13    1
    10    12    14   ar
    11     2     4   am
    12     4    15    1
    13    15    16   ar
    14    16    17   ar
    15    17    18   ar
    16    18    19   ar
    17    19    20   ar
    18    20    21    1
    19    21    22    1
    20    22    23    1
    21    23    24   ar
    22    24    25   ar
    23    25    26   ar
    24    26    27   ar
    25    27    28   ar
    26    14     7   ar
    27    20    15   ar
    28    28    23   ar
    29     3     5    1
    30     4     6    1
