@<TRIPOS>MOLECULE
*****
 34 36 0 0 0
SMALL
GASTEIGER

@<TRIPOS>ATOM
      1 C         142.1671  144.1356  163.4312 C.3     1  UNL1        0.1102
      2 C         140.8910  144.7245  163.9553 C.3     1  UNL1        0.0296
      3 C         140.2499  144.1516  165.1845 C.3     1  UNL1        0.0730
      4 N         140.8850  142.9899  165.8895 N.3     1  UNL1       -0.2689
      5 C         142.1611  142.4010  165.3654 C.3     1  UNL1        0.0730
      6 C         142.8022  142.9739  164.1362 C.3     1  UNL1        0.0296
      7 C         143.3674  143.9248  162.5567 C.2     1  UNL1        0.3177
      8 O         144.3909  145.0119  162.4131 O.2     1  UNL1       -0.2501
      9 C         144.4608  142.5523  160.6408 C.3     1  UNL1        0.2556
     10 O         143.5443  142.6270  161.8258 O.3     1  UNL1       -0.4444
     11 C         141.9488  145.2241  162.4225 C.3     1  UNL1        0.1002
     12 N         141.7969  144.8813  160.9701 N.am    1  UNL1       -0.3003
     13 C         140.5865  145.3421  160.2134 C.2     1  UNL1        0.2459
     14 O         139.5280  146.1456  160.9090 O.2     1  UNL1       -0.2701
     15 H         142.4917  144.3539  160.5135 H       1  UNL1        0.1498
     16 C         140.4346  144.9993  158.7610 C.ar    1  UNL1        0.0550
     17 C         140.3134  146.0924  157.7411 C.ar    1  UNL1        0.0160
     18 C         140.1615  145.7496  156.2887 C.ar    1  UNL1        0.0587
     19 CL        140.0402  146.8429  155.2687 Cl      1  UNL1       -0.0822
     20 C         140.1308  144.3137  155.8562 C.ar    1  UNL1        0.0228
     21 C         140.2521  143.2204  156.8762 C.ar    1  UNL1        0.0587
     22 CL        140.2214  141.7845  156.4437 Cl      1  UNL1       -0.0822
     23 C         140.4040  143.5633  158.3285 C.ar    1  UNL1        0.0160
     24 C         140.2440  142.4170  167.1187 C.3     1  UNL1        0.0991
     25 C         141.0788  141.6889  168.1300 C.ar    1  UNL1       -0.0022
     26 C         142.3524  142.3019  168.6324 C.ar    1  UNL1       -0.0030
     27 C         143.1874  141.5738  169.6437 C.ar    1  UNL1       -0.0003
     28 C         142.7487  140.2328  170.1528 C.ar    1  UNL1       -0.0001
     29 C         141.4751  139.6198  169.6505 C.ar    1  UNL1        0.0036
     30 C         140.6403  140.3479  168.6391 C.ar    1  UNL1        0.0688
     31 C         139.3667  139.7349  168.1368 C.3     1  UNL1        0.4183
     32 F         138.0932  139.1219  167.6344 F       1  UNL1       -0.1659
     33 F         140.0688  139.3036  166.8833 F       1  UNL1       -0.1659
     34 F         138.6647  140.1662  169.3902 F       1  UNL1       -0.1659
@<TRIPOS>BOND
     1     9    10    1
     2    10     7    1
     3     7     8    2
     4     7     1    1
     5     1    11    1
     6    11    12    1
     7    12    13   am
     8    13    14    2
     9    13    16    1
    10    16    17   ar
    11    17    18   ar
    12    18    19    1
    13    18    20   ar
    14    20    21   ar
    15    21    22    1
    16    21    23   ar
    17     1     2    1
    18     2     3    1
    19     3     4    1
    20     4    24    1
    21    24    25    1
    22    25    26   ar
    23    26    27   ar
    24    27    28   ar
    25    28    29   ar
    26    29    30   ar
    27    30    31    1
    28    31    32    1
    29    31    33    1
    30    31    34    1
    31     4     5    1
    32     5     6    1
    33     6     1    1
    34    23    16   ar
    35    30    25   ar
    36    12    15    1
@<TRIPOS>MOLECULE
*****
 34 36 0 0 0
SMALL
GASTEIGER

@<TRIPOS>ATOM
      1 C         138.5591  142.0483  163.6588 C.3     1  UNL1        0.1102
      2 C         137.9675  140.7875  164.2155 C.3     1  UNL1        0.0296
      3 C         138.4297  140.2646  165.5433 C.3     1  UNL1        0.0730
      4 N         139.4837  141.0028  166.3143 N.3     1  UNL1       -0.2689
      5 C         140.0753  142.2637  165.7575 C.3     1  UNL1        0.0730
      6 C         139.6131  142.7865  164.4297 C.3     1  UNL1        0.0296
      7 C         138.8157  143.1907  162.7211 C.2     1  UNL1        0.3177
      8 O         137.7336  144.1922  162.4453 O.2     1  UNL1       -0.2501
      9 C         140.4802  144.5728  161.2826 C.3     1  UNL1        0.2556
     10 O         140.1544  143.3316  162.0592 O.3     1  UNL1       -0.4444
     11 C         137.5943  141.7069  162.5622 C.3     1  UNL1        0.1002
     12 N         138.0950  141.4790  161.1667 N.am    1  UNL1       -0.3003
     13 C         138.0133  140.1120  160.5545 C.2     1  UNL1        0.2459
     14 O         137.4310  138.9730  161.3377 O.2     1  UNL1       -0.2701
     15 H         138.4772  142.2266  160.6526 H       1  UNL1        0.1498
     16 C         138.5140  139.8842  159.1590 C.ar    1  UNL1        0.0550
     17 C         139.5573  138.8386  158.8979 C.ar    1  UNL1        0.0160
     18 C         140.0580  138.6107  157.5024 C.ar    1  UNL1        0.0587
     19 CL        141.1013  137.5650  157.2413 Cl      1  UNL1       -0.0822
     20 C         139.5153  139.4284  156.3680 C.ar    1  UNL1        0.0228
     21 C         138.4720  140.4740  156.6291 C.ar    1  UNL1        0.0587
     22 CL        137.9294  141.2917  155.4947 Cl      1  UNL1       -0.0822
     23 C         137.9713  140.7019  158.0246 C.ar    1  UNL1        0.0160
     24 C         139.9459  140.4800  167.6421 C.3     1  UNL1        0.0991
     25 C         140.8877  141.2918  168.4811 C.ar    1  UNL1       -0.0022
     26 C         140.3959  142.5233  169.1823 C.ar    1  UNL1       -0.0030
     27 C         141.3376  143.3352  170.0215 C.ar    1  UNL1       -0.0003
     28 C         142.7711  142.9155  170.1594 C.ar    1  UNL1       -0.0001
     29 C         143.2629  141.6840  169.4582 C.ar    1  UNL1        0.0036
     30 C         142.3211  140.8722  168.6191 C.ar    1  UNL1        0.0688
     31 C         142.8129  139.6407  167.9179 C.3     1  UNL1        0.4183
     32 F         143.3047  138.4093  167.2166 F       1  UNL1       -0.1659
     33 F         143.0645  140.4471  166.6783 F       1  UNL1       -0.1659
     34 F         142.5613  138.8344  169.1575 F       1  UNL1       -0.1659
@<TRIPOS>BOND
     1     9    10    1
     2    10     7    1
     3     7     8    2
     4     7     1    1
     5     1    11    1
     6    11    12    1
     7    12    13   am
     8    13    14    2
     9    13    16    1
    10    16    17   ar
    11    17    18   ar
    12    18    19    1
    13    18    20   ar
    14    20    21   ar
    15    21    22    1
    16    21    23   ar
    17     1     2    1
    18     2     3    1
    19     3     4    1
    20     4    24    1
    21    24    25    1
    22    25    26   ar
    23    26    27   ar
    24    27    28   ar
    25    28    29   ar
    26    29    30   ar
    27    30    31    1
    28    31    32    1
    29    31    33    1
    30    31    34    1
    31     4     5    1
    32     5     6    1
    33     6     1    1
    34    23    16   ar
    35    30    25   ar
    36    12    15    1
@<TRIPOS>MOLECULE
*****
 34 36 0 0 0
SMALL
GASTEIGER

@<TRIPOS>ATOM
      1 C         143.5136  143.1194  163.5522 C.3     1  UNL1        0.1102
      2 C         144.2943  141.8445  163.4294 C.3     1  UNL1        0.0296
      3 C         143.8907  140.6384  164.2247 C.3     1  UNL1        0.0730
      4 N         142.7064  140.7073  165.1427 N.3     1  UNL1       -0.2689
      5 C         141.9258  141.9822  165.2655 C.3     1  UNL1        0.0730
      6 C         142.3294  143.1883  164.4702 C.3     1  UNL1        0.0296
      7 C         143.0936  144.5421  163.3292 C.2     1  UNL1        0.3177
      8 O         144.0884  145.5487  162.8322 O.2     1  UNL1       -0.2501
      9 C         140.8255  145.4930  162.4915 C.3     1  UNL1        0.2556
     10 O         141.6787  144.9581  163.6032 O.3     1  UNL1       -0.4444
     11 C         144.5520  143.5446  162.5567 C.3     1  UNL1        0.1002
     12 N         144.8241  142.6979  161.3488 N.am    1  UNL1       -0.3003
     13 C         144.0196  142.8948  160.0981 C.2     1  UNL1        0.2459
     14 O         142.9430  143.9384  160.0554 O.2     1  UNL1       -0.2701
     15 H         145.5307  142.0130  161.3768 H       1  UNL1        0.1498
     16 C         144.2917  142.0481  158.8902 C.ar    1  UNL1        0.0550
     17 C         145.3701  142.4428  157.9252 C.ar    1  UNL1        0.0160
     18 C         145.6422  141.5961  156.7173 C.ar    1  UNL1        0.0587
     19 CL        146.7206  141.9908  155.7522 Cl      1  UNL1       -0.0822
     20 C         144.8360  140.3547  156.4744 C.ar    1  UNL1        0.0228
     21 C         143.7576  139.9600  157.4395 C.ar    1  UNL1        0.0587
     22 CL        142.9514  138.7187  157.1967 Cl      1  UNL1       -0.0822
     23 C         143.4854  140.8067  158.6474 C.ar    1  UNL1        0.0160
     24 C         142.3029  139.5012  165.9380 C.3     1  UNL1        0.0991
     25 C         140.8500  139.1865  166.1380 C.ar    1  UNL1       -0.0022
     26 C         140.1180  139.7442  167.3226 C.ar    1  UNL1       -0.0030
     27 C         138.6650  139.4295  167.5227 C.ar    1  UNL1       -0.0003
     28 C         137.9442  138.5570  166.5382 C.ar    1  UNL1       -0.0001
     29 C         138.6762  137.9993  165.3537 C.ar    1  UNL1        0.0036
     30 C         140.1291  138.3140  165.1536 C.ar    1  UNL1        0.0688
     31 C         140.8612  137.7563  163.9691 C.3     1  UNL1        0.4183
     32 F         141.5932  137.1987  162.7845 F       1  UNL1       -0.1659
     33 F         140.5286  138.9899  163.1829 F       1  UNL1       -0.1659
     34 F         141.1936  136.5229  164.7552 F       1  UNL1       -0.1659
@<TRIPOS>BOND
     1     9    10    1
     2    10     7    1
     3     7     8    2
     4     7     1    1
     5     1    11    1
     6    11    12    1
     7    12    13   am
     8    13    14    2
     9    13    16    1
    10    16    17   ar
    11    17    18   ar
    12    18    19    1
    13    18    20   ar
    14    20    21   ar
    15    21    22    1
    16    21    23   ar
    17     1     2    1
    18     2     3    1
    19     3     4    1
    20     4    24    1
    21    24    25    1
    22    25    26   ar
    23    26    27   ar
    24    27    28   ar
    25    28    29   ar
    26    29    30   ar
    27    30    31    1
    28    31    32    1
    29    31    33    1
    30    31    34    1
    31     4     5    1
    32     5     6    1
    33     6     1    1
    34    23    16   ar
    35    30    25   ar
    36    12    15    1
@<TRIPOS>MOLECULE
*****
 34 36 0 0 0
SMALL
GASTEIGER

@<TRIPOS>ATOM
      1 C         142.0636  139.2009  158.5932 C.3     1  UNL1        0.1102
      2 C         140.8395  138.3830  158.3058 C.3     1  UNL1        0.0296
      3 C         139.6196  138.5311  159.1659 C.3     1  UNL1        0.0730
      4 N         139.6239  139.4970  160.3136 N.3     1  UNL1       -0.2689
      5 C         140.8480  140.3148  160.6010 C.3     1  UNL1        0.0730
      6 C         142.0679  140.1668  159.7408 C.3     1  UNL1        0.0296
      7 C         143.4540  139.7494  158.4668 C.2     1  UNL1        0.3177
      8 O         144.0942  140.4459  159.6309 O.2     1  UNL1       -0.2501
      9 C         145.0874  140.7124  156.6906 C.3     1  UNL1        0.2556
     10 O         144.2042  139.6015  157.1764 O.3     1  UNL1       -0.4444
     11 C         142.5422  138.4255  157.4017 C.3     1  UNL1        0.1002
     12 N         142.3771  136.9352  157.3610 N.am    1  UNL1       -0.3003
     13 C         143.3174  136.0983  156.5452 C.2     1  UNL1        0.2459
     14 O         144.4229  136.7519  155.7701 O.2     1  UNL1       -0.2701
     15 H         141.6515  136.5062  157.8698 H       1  UNL1        0.1498
     16 C         143.1523  134.6080  156.5045 C.ar    1  UNL1        0.0550
     17 C         142.0520  133.9974  155.6882 C.ar    1  UNL1        0.0160
     18 C         141.8868  132.5070  155.6475 C.ar    1  UNL1        0.0587
     19 CL        140.7864  131.8964  154.8312 Cl      1  UNL1       -0.0822
     20 C         142.8220  131.6274  156.4232 C.ar    1  UNL1        0.0228
     21 C         143.9224  132.2380  157.2395 C.ar    1  UNL1        0.0587
     22 CL        144.8575  131.3583  158.0151 Cl      1  UNL1       -0.0822
     23 C         144.0875  133.7283  157.2802 C.ar    1  UNL1        0.0160
     24 C         138.4040  139.6451  161.1738 C.3     1  UNL1        0.0991
     25 C         138.4856  139.3665  162.6454 C.ar    1  UNL1       -0.0022
     26 C         138.7831  137.9786  163.1306 C.ar    1  UNL1       -0.0030
     27 C         138.8647  137.7000  164.6023 C.ar    1  UNL1       -0.0003
     28 C         138.6490  138.8092  165.5887 C.ar    1  UNL1       -0.0001
     29 C         138.3515  140.1971  165.1034 C.ar    1  UNL1        0.0036
     30 C         138.2699  140.4757  163.6318 C.ar    1  UNL1        0.0688
     31 C         137.9724  141.8635  163.1466 C.3     1  UNL1        0.4183
     32 F         137.6751  143.2514  162.6613 F       1  UNL1       -0.1659
     33 F         139.4426  142.1501  163.0654 F       1  UNL1       -0.1659
     34 F         136.5024  141.5769  163.2278 F       1  UNL1       -0.1659
@<TRIPOS>BOND
     1     9    10    1
     2    10     7    1
     3     7     8    2
     4     7     1    1
     5     1    11    1
     6    11    12    1
     7    12    13   am
     8    13    14    2
     9    13    16    1
    10    16    17   ar
    11    17    18   ar
    12    18    19    1
    13    18    20   ar
    14    20    21   ar
    15    21    22    1
    16    21    23   ar
    17     1     2    1
    18     2     3    1
    19     3     4    1
    20     4    24    1
    21    24    25    1
    22    25    26   ar
    23    26    27   ar
    24    27    28   ar
    25    28    29   ar
    26    29    30   ar
    27    30    31    1
    28    31    32    1
    29    31    33    1
    30    31    34    1
    31     4     5    1
    32     5     6    1
    33     6     1    1
    34    23    16   ar
    35    30    25   ar
    36    12    15    1
@<TRIPOS>MOLECULE
*****
 34 36 0 0 0
SMALL
GASTEIGER

@<TRIPOS>ATOM
      1 C         143.1605  139.1119  159.2571 C.3     1  UNL1        0.1102
      2 C         142.8719  137.9505  160.1615 C.3     1  UNL1        0.0296
      3 C         143.3121  137.9887  161.5949 C.3     1  UNL1        0.0730
      4 N         144.0410  139.1882  162.1239 N.3     1  UNL1       -0.2689
      5 C         144.3296  140.3496  161.2196 C.3     1  UNL1        0.0730
      6 C         143.8894  140.3114  159.7862 C.3     1  UNL1        0.0296
      7 C         143.2008  139.9589  158.0197 C.2     1  UNL1        0.3177
      8 O         142.3413  141.1842  157.9212 O.2     1  UNL1       -0.2501
      9 C         145.0017  140.6085  156.2633 C.3     1  UNL1        0.2556
     10 O         144.1007  139.5805  156.8809 O.3     1  UNL1       -0.4444
     11 C         142.4456  138.2065  158.2984 C.3     1  UNL1        0.1002
     12 N         143.0407  136.8782  157.9356 N.am    1  UNL1       -0.3003
     13 C         142.3768  136.0157  156.9034 C.2     1  UNL1        0.2459
     14 O         141.1179  136.4815  156.2340 O.2     1  UNL1       -0.2701
     15 H         143.8670  136.5725  158.3750 H       1  UNL1        0.1498
     16 C         142.9719  134.6875  156.5406 C.ar    1  UNL1        0.0550
     17 C         142.6470  134.0558  155.2195 C.ar    1  UNL1        0.0160
     18 C         143.2421  132.7275  154.8568 C.ar    1  UNL1        0.0587
     19 CL        142.9172  132.0958  153.5356 Cl      1  UNL1       -0.0822
     20 C         144.1620  132.0309  155.8151 C.ar    1  UNL1        0.0228
     21 C         144.4869  132.6626  157.1363 C.ar    1  UNL1        0.0587
     22 CL        145.4068  131.9660  158.0947 Cl      1  UNL1       -0.0822
     23 C         143.8918  133.9909  157.4991 C.ar    1  UNL1        0.0160
     24 C         144.4812  139.2263  163.5574 C.3     1  UNL1        0.0991
     25 C         143.7866  140.1311  164.5315 C.ar    1  UNL1       -0.0022
     26 C         144.2792  141.5332  164.7354 C.ar    1  UNL1       -0.0030
     27 C         143.5846  142.4380  165.7095 C.ar    1  UNL1       -0.0003
     28 C         142.3974  141.9407  166.4797 C.ar    1  UNL1       -0.0001
     29 C         141.9048  140.5386  166.2759 C.ar    1  UNL1        0.0036
     30 C         142.5994  139.6338  165.3018 C.ar    1  UNL1        0.0688
     31 C         142.1069  138.2317  165.0979 C.3     1  UNL1        0.4183
     32 F         141.6143  136.8297  164.8939 F       1  UNL1       -0.1659
     33 F         141.1132  138.7275  164.0894 F       1  UNL1       -0.1659
     34 F         143.1005  137.7360  166.1062 F       1  UNL1       -0.1659
@<TRIPOS>BOND
     1     9    10    1
     2    10     7    1
     3     7     8    2
     4     7     1    1
     5     1    11    1
     6    11    12    1
     7    12    13   am
     8    13    14    2
     9    13    16    1
    10    16    17   ar
    11    17    18   ar
    12    18    19    1
    13    18    20   ar
    14    20    21   ar
    15    21    22    1
    16    21    23   ar
    17     1     2    1
    18     2     3    1
    19     3     4    1
    20     4    24    1
    21    24    25    1
    22    25    26   ar
    23    26    27   ar
    24    27    28   ar
    25    28    29   ar
    26    29    30   ar
    27    30    31    1
    28    31    32    1
    29    31    33    1
    30    31    34    1
    31     4     5    1
    32     5     6    1
    33     6     1    1
    34    23    16   ar
    35    30    25   ar
    36    12    15    1
@<TRIPOS>MOLECULE
*****
 34 36 0 0 0
SMALL
GASTEIGER

@<TRIPOS>ATOM
      1 C         141.6587  138.8585  159.3152 C.3     1  UNL1        0.1102
      2 C         140.2214  138.6187  158.9597 C.3     1  UNL1        0.0296
      3 C         139.1428  138.9072  159.9614 C.3     1  UNL1        0.0730
      4 N         139.5017  139.4357  161.3187 N.3     1  UNL1       -0.2689
      5 C         140.9391  139.6755  161.6741 C.3     1  UNL1        0.0730
      6 C         142.0176  139.3870  160.6724 C.3     1  UNL1        0.0296
      7 C         143.1516  138.9226  159.1834 C.2     1  UNL1        0.3177
      8 O         144.0244  138.2944  160.2291 O.2     1  UNL1       -0.2501
      9 C         144.2790  141.0196  158.1435 C.3     1  UNL1        0.2556
     10 O         143.7715  139.6148  158.0060 O.3     1  UNL1       -0.4444
     11 C         141.8183  138.3523  157.9122 C.3     1  UNL1        0.1002
     12 N         142.5269  137.0547  157.6591 N.am    1  UNL1       -0.3003
     13 C         142.0109  136.1097  156.6147 C.2     1  UNL1        0.2459
     14 O         140.7863  136.4623  155.8235 O.2     1  UNL1       -0.2701
     15 H         143.3306  136.8233  158.1784 H       1  UNL1        0.1498
     16 C         142.7195  134.8121  156.3616 C.ar    1  UNL1        0.0550
     17 C         143.6764  134.2688  157.3810 C.ar    1  UNL1        0.0160
     18 C         144.3850  132.9712  157.1278 C.ar    1  UNL1        0.0587
     19 CL        145.3419  132.4279  158.1473 Cl      1  UNL1       -0.0822
     20 C         144.1367  132.2169  155.8553 C.ar    1  UNL1        0.0228
     21 C         143.1798  132.7601  154.8359 C.ar    1  UNL1        0.0587
     22 CL        142.9316  132.0058  153.5633 Cl      1  UNL1       -0.0822
     23 C         142.4712  134.0578  155.0890 C.ar    1  UNL1        0.0160
     24 C         138.4232  139.7242  162.3204 C.3     1  UNL1        0.0991
     25 C         138.3297  141.0816  162.9518 C.ar    1  UNL1       -0.0022
     26 C         137.8852  142.2593  162.1359 C.ar    1  UNL1       -0.0030
     27 C         137.7917  143.6168  162.7672 C.ar    1  UNL1       -0.0003
     28 C         138.1426  143.7966  164.2145 C.ar    1  UNL1       -0.0001
     29 C         138.5871  142.6189  165.0304 C.ar    1  UNL1        0.0036
     30 C         138.6806  141.2615  164.3990 C.ar    1  UNL1        0.0688
     31 C         139.1251  140.0838  165.2148 C.3     1  UNL1        0.4183
     32 F         139.5697  138.9062  166.0306 F       1  UNL1       -0.1659
     33 F         140.5513  140.3666  164.8459 F       1  UNL1       -0.1659
     34 F         137.6990  139.8011  165.5837 F       1  UNL1       -0.1659
@<TRIPOS>BOND
     1     9    10    1
     2    10     7    1
     3     7     8    2
     4     7     1    1
     5     1    11    1
     6    11    12    1
     7    12    13   am
     8    13    14    2
     9    13    16    1
    10    16    17   ar
    11    17    18   ar
    12    18    19    1
    13    18    20   ar
    14    20    21   ar
    15    21    22    1
    16    21    23   ar
    17     1     2    1
    18     2     3    1
    19     3     4    1
    20     4    24    1
    21    24    25    1
    22    25    26   ar
    23    26    27   ar
    24    27    28   ar
    25    28    29   ar
    26    29    30   ar
    27    30    31    1
    28    31    32    1
    29    31    33    1
    30    31    34    1
    31     4     5    1
    32     5     6    1
    33     6     1    1
    34    23    16   ar
    35    30    25   ar
    36    12    15    1
@<TRIPOS>MOLECULE
*****
 34 36 0 0 0
SMALL
GASTEIGER

@<TRIPOS>ATOM
      1 C         143.0175  139.1921  160.4113 C.3     1  UNL1        0.1102
      2 C         142.1580  137.9919  160.6768 C.3     1  UNL1        0.0296
      3 C         141.8620  137.5789  162.0882 C.3     1  UNL1        0.0730
      4 N         142.4255  138.3662  163.2339 N.3     1  UNL1       -0.2689
      5 C         143.2851  139.5664  162.9683 C.3     1  UNL1        0.0730
      6 C         143.5811  139.9794  161.5570 C.3     1  UNL1        0.0296
      7 C         143.7724  140.2461  159.6567 C.2     1  UNL1        0.3177
      8 O         144.4118  139.9137  158.3412 O.2     1  UNL1       -0.2501
      9 C         143.7452  142.8214  159.3145 C.3     1  UNL1        0.2556
     10 O         143.8879  141.6324  160.2177 O.3     1  UNL1       -0.4444
     11 C         142.7161  138.7709  159.0035 C.3     1  UNL1        0.1002
     12 N         142.8672  137.3335  158.6021 N.am    1  UNL1       -0.3003
     13 C         142.5722  136.9135  157.1926 C.2     1  UNL1        0.2459
     14 O         142.1262  137.9308  156.1846 O.2     1  UNL1       -0.2701
     15 H         143.1599  136.6658  159.2637 H       1  UNL1        0.1498
     16 C         142.7234  135.4761  156.7912 C.ar    1  UNL1        0.0550
     17 C         143.6932  134.5924  157.5180 C.ar    1  UNL1        0.0160
     18 C         143.8443  133.1551  157.1166 C.ar    1  UNL1        0.0587
     19 CL        144.8142  132.2713  157.8435 Cl      1  UNL1       -0.0822
     20 C         143.0256  132.6014  155.9883 C.ar    1  UNL1        0.0228
     21 C         142.0557  133.4852  155.2613 C.ar    1  UNL1        0.0587
     22 CL        141.2370  132.9315  154.1330 Cl      1  UNL1       -0.0822
     23 C         141.9046  134.9225  155.6628 C.ar    1  UNL1        0.0160
     24 C         142.1295  137.9531  164.6452 C.3     1  UNL1        0.0991
     25 C         141.3466  138.8632  165.5444 C.ar    1  UNL1       -0.0022
     26 C         142.0562  139.6959  166.5706 C.ar    1  UNL1       -0.0030
     27 C         141.2733  140.6060  167.4700 C.ar    1  UNL1       -0.0003
     28 C         139.7807  140.6834  167.3431 C.ar    1  UNL1       -0.0001
     29 C         139.0710  139.8507  166.3169 C.ar    1  UNL1        0.0036
     30 C         139.8540  138.9406  165.4176 C.ar    1  UNL1        0.0688
     31 C         139.1443  138.1079  164.3914 C.3     1  UNL1        0.4183
     32 F         138.4347  137.2752  163.3653 F       1  UNL1       -0.1659
     33 F         138.9861  137.0051  165.3958 F       1  UNL1       -0.1659
     34 F         139.3026  139.2107  163.3871 F       1  UNL1       -0.1659
@<TRIPOS>BOND
     1     9    10    1
     2    10     7    1
     3     7     8    2
     4     7     1    1
     5     1    11    1
     6    11    12    1
     7    12    13   am
     8    13    14    2
     9    13    16    1
    10    16    17   ar
    11    17    18   ar
    12    18    19    1
    13    18    20   ar
    14    20    21   ar
    15    21    22    1
    16    21    23   ar
    17     1     2    1
    18     2     3    1
    19     3     4    1
    20     4    24    1
    21    24    25    1
    22    25    26   ar
    23    26    27   ar
    24    27    28   ar
    25    28    29   ar
    26    29    30   ar
    27    30    31    1
    28    31    32    1
    29    31    33    1
    30    31    34    1
    31     4     5    1
    32     5     6    1
    33     6     1    1
    34    23    16   ar
    35    30    25   ar
    36    12    15    1
@<TRIPOS>MOLECULE
*****
 34 36 0 0 0
SMALL
GASTEIGER

@<TRIPOS>ATOM
      1 C         143.1183  139.2458  160.0237 C.3     1  UNL1        0.1102
      2 C         142.3287  138.0296  160.4074 C.3     1  UNL1        0.0296
      3 C         142.1025  137.7081  161.8549 C.3     1  UNL1        0.0730
      4 N         142.6660  138.6030  162.9188 N.3     1  UNL1       -0.2689
      5 C         143.4556  139.8192  162.5351 C.3     1  UNL1        0.0730
      6 C         143.6818  140.1406  161.0876 C.3     1  UNL1        0.0296
      7 C         143.7938  140.2755  159.1671 C.2     1  UNL1        0.3177
      8 O         144.4891  139.8614  157.9042 O.2     1  UNL1       -0.2501
      9 C         144.1376  142.7830  158.5806 C.3     1  UNL1        0.2556
     10 O         143.7738  141.7192  159.5736 O.3     1  UNL1       -0.4444
     11 C         142.7895  138.7085  158.6624 C.3     1  UNL1        0.1002
     12 N         142.9485  137.2449  158.3752 N.am    1  UNL1       -0.3003
     13 C         142.5509  136.6956  157.0371 C.2     1  UNL1        0.2459
     14 O         141.9944  137.6100  155.9863 O.2     1  UNL1       -0.2701
     15 H         143.3138  136.6448  159.0648 H       1  UNL1        0.1498
     16 C         142.7099  135.2320  156.7499 C.ar    1  UNL1        0.0550
     17 C         141.8283  134.5668  155.7349 C.ar    1  UNL1        0.0160
     18 C         141.9874  133.1031  155.4477 C.ar    1  UNL1        0.0587
     19 CL        141.1057  132.4379  154.4326 Cl      1  UNL1       -0.0822
     20 C         143.0279  132.3047  156.1754 C.ar    1  UNL1        0.0228
     21 C         143.9096  132.9700  157.1905 C.ar    1  UNL1        0.0587
     22 CL        144.9501  132.1716  157.9183 Cl      1  UNL1       -0.0822
     23 C         143.7506  134.4336  157.4777 C.ar    1  UNL1        0.0160
     24 C         142.4398  138.2815  164.3664 C.3     1  UNL1        0.0991
     25 C         141.1200  138.5944  165.0068 C.ar    1  UNL1       -0.0022
     26 C         139.9482  137.6823  164.7943 C.ar    1  UNL1       -0.0030
     27 C         138.6283  137.9952  165.4347 C.ar    1  UNL1       -0.0003
     28 C         138.4802  139.2201  166.2876 C.ar    1  UNL1       -0.0001
     29 C         139.6519  140.1322  166.5002 C.ar    1  UNL1        0.0036
     30 C         140.9717  139.8194  165.8598 C.ar    1  UNL1        0.0688
     31 C         142.1435  140.7315  166.0723 C.3     1  UNL1        0.4183
     32 F         143.3153  141.6435  166.2849 F       1  UNL1       -0.1659
     33 F         142.5496  139.9298  167.2734 F       1  UNL1       -0.1659
     34 F         141.7374  141.5330  164.8713 F       1  UNL1       -0.1659
@<TRIPOS>BOND
     1     9    10    1
     2    10     7    1
     3     7     8    2
     4     7     1    1
     5     1    11    1
     6    11    12    1
     7    12    13   am
     8    13    14    2
     9    13    16    1
    10    16    17   ar
    11    17    18   ar
    12    18    19    1
    13    18    20   ar
    14    20    21   ar
    15    21    22    1
    16    21    23   ar
    17     1     2    1
    18     2     3    1
    19     3     4    1
    20     4    24    1
    21    24    25    1
    22    25    26   ar
    23    26    27   ar
    24    27    28   ar
    25    28    29   ar
    26    29    30   ar
    27    30    31    1
    28    31    32    1
    29    31    33    1
    30    31    34    1
    31     4     5    1
    32     5     6    1
    33     6     1    1
    34    23    16   ar
    35    30    25   ar
    36    12    15    1
@<TRIPOS>MOLECULE
*****
 34 36 0 0 0
SMALL
GASTEIGER

@<TRIPOS>ATOM
      1 C         142.7681  143.7230  163.5885 C.3     1  UNL1        0.1102
      2 C         141.3495  143.6333  164.0674 C.3     1  UNL1        0.0296
      3 C         140.9644  142.5977  165.0819 C.3     1  UNL1        0.0730
      4 N         141.9981  141.6519  165.6176 N.3     1  UNL1       -0.2689
      5 C         143.4168  141.7416  165.1387 C.3     1  UNL1        0.0730
      6 C         143.8018  142.7772  164.1242 C.3     1  UNL1        0.0296
      7 C         143.9732  144.1987  162.8324 C.2     1  UNL1        0.3177
      8 O         144.3096  145.6601  162.7999 O.2     1  UNL1       -0.2501
      9 C         144.4430  142.7174  160.7502 C.3     1  UNL1        0.2556
     10 O         144.8417  143.2129  162.1087 O.3     1  UNL1       -0.4444
     11 C         142.1529  144.8340  162.7903 C.3     1  UNL1        0.1002
     12 N         142.1291  144.7573  161.2924 N.am    1  UNL1       -0.3003
     13 C         140.8236  144.8374  160.5580 C.2     1  UNL1        0.2459
     14 O         139.5420  144.9942  161.3215 O.2     1  UNL1       -0.2701
     15 H         142.9703  144.6543  160.7914 H       1  UNL1        0.1498
     16 C         140.7997  144.7606  159.0602 C.ar    1  UNL1        0.0550
     17 C         141.3199  143.5383  158.3635 C.ar    1  UNL1        0.0160
     18 C         141.2960  143.4616  156.8656 C.ar    1  UNL1        0.0587
     19 CL        141.8162  142.2392  156.1689 Cl      1  UNL1       -0.0822
     20 C         140.7520  144.6071  156.0645 C.ar    1  UNL1        0.0228
     21 C         140.2318  145.8294  156.7612 C.ar    1  UNL1        0.0587
     22 CL        139.6878  146.9749  155.9601 Cl      1  UNL1       -0.0822
     23 C         140.2557  145.9062  158.2591 C.ar    1  UNL1        0.0160
     24 C         141.6131  140.6163  166.6321 C.3     1  UNL1        0.0991
     25 C         140.5022  139.6529  166.3360 C.ar    1  UNL1       -0.0022
     26 C         139.2103  139.7423  167.0931 C.ar    1  UNL1       -0.0030
     27 C         138.0992  138.7789  166.7971 C.ar    1  UNL1       -0.0003
     28 C         138.2801  137.7262  165.7440 C.ar    1  UNL1       -0.0001
     29 C         139.5720  137.6368  164.9869 C.ar    1  UNL1        0.0036
     30 C         140.6829  138.6002  165.2830 C.ar    1  UNL1        0.0688
     31 C         141.9748  138.5108  164.5259 C.3     1  UNL1        0.4183
     32 F         143.2666  138.4216  163.7688 F       1  UNL1       -0.1659
     33 F         141.4048  139.3869  163.4499 F       1  UNL1       -0.1659
     34 F         142.5448  137.6348  165.6018 F       1  UNL1       -0.1659
@<TRIPOS>BOND
     1     9    10    1
     2    10     7    1
     3     7     8    2
     4     7     1    1
     5     1    11    1
     6    11    12    1
     7    12    13   am
     8    13    14    2
     9    13    16    1
    10    16    17   ar
    11    17    18   ar
    12    18    19    1
    13    18    20   ar
    14    20    21   ar
    15    21    22    1
    16    21    23   ar
    17     1     2    1
    18     2     3    1
    19     3     4    1
    20     4    24    1
    21    24    25    1
    22    25    26   ar
    23    26    27   ar
    24    27    28   ar
    25    28    29   ar
    26    29    30   ar
    27    30    31    1
    28    31    32    1
    29    31    33    1
    30    31    34    1
    31     4     5    1
    32     5     6    1
    33     6     1    1
    34    23    16   ar
    35    30    25   ar
    36    12    15    1
