@<TRIPOS>MOLECULE
*****
 25 26 0 0 0
SMALL
GASTEIGER

@<TRIPOS>ATOM
      1 C         137.7143  141.5936  163.1369 C.ar    1  UNL1        0.1328
      2 N         137.6673  141.6419  161.6384 N.ar    1  UNL1       -0.1993
      3 C         138.0093  140.4206  160.8375 C.ar    1  UNL1        0.2148
      4 N         137.9624  140.4690  159.3390 N.pl3   1  UNL1       -0.3274
      5 N         138.3982  139.1509  161.5351 N.ar    1  UNL1       -0.2139
      6 C         138.4452  139.1025  163.0336 C.ar    1  UNL1        0.0870
      7 C         138.8341  137.8329  163.7311 C.ar    1  UNL1        0.0216
      8 C         138.8811  137.7845  165.2296 C.ar    1  UNL1        0.0312
      9 C         138.5391  139.0058  166.0305 C.ar    1  UNL1        0.1403
     10 F         138.5861  138.9574  167.5290 F       1  UNL1       -0.2042
     11 C         138.1502  140.2755  165.3330 C.ar    1  UNL1        0.0339
     12 C         138.1032  140.3238  163.8345 C.ar    1  UNL1        0.0514
     13 H         137.7071  141.3024  158.8812 H       1  UNL1        0.1452
     14 H         138.1868  139.6675  158.8133 H       1  UNL1        0.1452
     15 N         137.3723  142.8149  163.9378 N.pl3   1  UNL1       -0.3195
     16 H         136.5331  142.8476  164.4515 H       1  UNL1        0.1481
     17 C         138.3089  143.9863  163.9560 C.3     1  UNL1        0.0729
     18 C         139.0498  144.3348  165.2128 C.3     1  UNL1        0.0196
     19 C         140.0611  143.3810  165.7763 C.3     1  UNL1        0.0017
     20 C         141.5770  141.4481  164.9303 C.3     1  UNL1        0.0000
     21 C         141.1950  142.8986  164.9211 C.3     1  UNL1        0.0001
     22 C         138.5047  144.8094  162.7173 C.3     1  UNL1        0.0512
     23 C         139.8844  145.2330  162.3086 C.3     1  UNL1        0.1389
     24 O         140.2639  146.6838  162.3412 O.3     1  UNL1       -0.3819
     25 H         139.7432  147.1691  161.6823 H       1  UNL1        0.2104
@<TRIPOS>BOND
     1    20    21    1
     2    21    19    1
     3    19    18    1
     4    17    18    1
     5    17    22    1
     6    22    23    1
     7    23    24    1
     8    17    15    1
     9    15     1    1
    10     1     2   ar
    11     2     3   ar
    12     3     4    1
    13     3     5   ar
    14     5     6   ar
    15     6     7   ar
    16     7     8   ar
    17     8     9   ar
    18     9    10    1
    19     9    11   ar
    20    11    12   ar
    21    12     1   ar
    22    12     6   ar
    23    24    25    1
    24    15    16    1
    25     4    13    1
    26     4    14    1
@<TRIPOS>MOLECULE
*****
 25 26 0 0 0
SMALL
GASTEIGER

@<TRIPOS>ATOM
      1 C         139.4992  140.2203  164.6647 C.ar    1  UNL1        0.1328
      2 N         139.2826  139.0060  163.8113 N.ar    1  UNL1       -0.1993
      3 C         138.5239  139.1206  162.5224 C.ar    1  UNL1        0.2148
      4 N         138.3074  137.9061  161.6690 N.pl3   1  UNL1       -0.3274
      5 N         137.9817  140.4496  162.0869 N.ar    1  UNL1       -0.2139
      6 C         138.1983  141.6641  162.9403 C.ar    1  UNL1        0.0870
      7 C         137.6561  142.9931  162.5049 C.ar    1  UNL1        0.0216
      8 C         137.8726  144.2075  163.3583 C.ar    1  UNL1        0.0312
      9 C         138.6313  144.0928  164.6472 C.ar    1  UNL1        0.1403
     10 F         138.8478  145.3073  165.5006 F       1  UNL1       -0.2042
     11 C         139.1735  142.7638  165.0826 C.ar    1  UNL1        0.0339
     12 C         138.9570  141.5494  164.2292 C.ar    1  UNL1        0.0514
     13 H         138.6633  137.0338  161.9548 H       1  UNL1        0.1452
     14 H         137.8095  137.9814  160.8230 H       1  UNL1        0.1452
     15 N         140.2579  140.1057  165.9536 N.pl3   1  UNL1       -0.3195
     16 H         141.2405  140.1662  165.9534 H       1  UNL1        0.1481
     17 C         139.5194  139.8989  167.2427 C.3     1  UNL1        0.0729
     18 C         140.2250  140.0976  168.5514 C.3     1  UNL1        0.0196
     19 C         139.4942  140.7033  169.7130 C.3     1  UNL1        0.0017
     20 C         140.5100  143.0285  169.1547 C.3     1  UNL1        0.0000
     21 C         139.7114  142.1448  170.0664 C.3     1  UNL1        0.0001
     22 C         138.0754  139.4932  167.2232 C.3     1  UNL1        0.0512
     23 C         137.6989  138.0747  166.9134 C.3     1  UNL1        0.1389
     24 O         136.5815  137.4141  167.6650 O.3     1  UNL1       -0.3819
     25 H         136.8325  137.3157  168.5968 H       1  UNL1        0.2104
@<TRIPOS>BOND
     1    20    21    1
     2    21    19    1
     3    19    18    1
     4    17    18    1
     5    17    22    1
     6    22    23    1
     7    23    24    1
     8    17    15    1
     9    15     1    1
    10     1     2   ar
    11     2     3   ar
    12     3     4    1
    13     3     5   ar
    14     5     6   ar
    15     6     7   ar
    16     7     8   ar
    17     8     9   ar
    18     9    10    1
    19     9    11   ar
    20    11    12   ar
    21    12     1   ar
    22    12     6   ar
    23    24    25    1
    24    15    16    1
    25     4    13    1
    26     4    14    1
@<TRIPOS>MOLECULE
*****
 25 26 0 0 0
SMALL
GASTEIGER

@<TRIPOS>ATOM
      1 C         142.1555  140.6897  165.9240 C.ar    1  UNL1        0.1328
      2 N         143.4711  140.5640  165.2145 N.ar    1  UNL1       -0.1993
      3 C         143.7054  139.4268  164.2647 C.ar    1  UNL1        0.2148
      4 N         145.0211  139.3011  163.5553 N.pl3   1  UNL1       -0.3274
      5 N         142.6241  138.4154  164.0245 N.ar    1  UNL1       -0.2139
      6 C         141.3084  138.5411  164.7340 C.ar    1  UNL1        0.0870
      7 C         140.2271  137.5296  164.4937 C.ar    1  UNL1        0.0216
      8 C         138.9116  137.6553  165.2032 C.ar    1  UNL1        0.0312
      9 C         138.6773  138.7925  166.1529 C.ar    1  UNL1        0.1403
     10 F         137.3616  138.9181  166.8624 F       1  UNL1       -0.2042
     11 C         139.7585  139.8039  166.3932 C.ar    1  UNL1        0.0339
     12 C         141.0741  139.6782  165.6837 C.ar    1  UNL1        0.0514
     13 H         145.7307  139.9650  163.7130 H       1  UNL1        0.1452
     14 H         145.1749  138.5548  162.9319 H       1  UNL1        0.1452
     15 N         141.9212  141.8268  166.8737 N.pl3   1  UNL1       -0.3195
     16 H         141.5694  142.6832  166.5390 H       1  UNL1        0.1481
     17 C         142.2230  141.6592  168.3334 C.3     1  UNL1        0.0729
     18 C         141.8135  142.7209  169.3107 C.3     1  UNL1        0.0196
     19 C         140.3591  142.9945  169.5553 C.3     1  UNL1        0.0017
     20 C         139.0307  140.7939  169.9335 C.3     1  UNL1        0.0000
     21 C         139.5676  142.0933  170.4562 C.3     1  UNL1        0.0001
     22 C         142.9342  140.4297  168.8159 C.3     1  UNL1        0.0512
     23 C         142.4230  139.6902  170.0166 C.3     1  UNL1        0.1389
     24 O         142.8027  140.1442  171.3948 O.3     1  UNL1       -0.3819
     25 H         143.7564  140.0235  171.5237 H       1  UNL1        0.2104
@<TRIPOS>BOND
     1    20    21    1
     2    21    19    1
     3    19    18    1
     4    17    18    1
     5    17    22    1
     6    22    23    1
     7    23    24    1
     8    17    15    1
     9    15     1    1
    10     1     2   ar
    11     2     3   ar
    12     3     4    1
    13     3     5   ar
    14     5     6   ar
    15     6     7   ar
    16     7     8   ar
    17     8     9   ar
    18     9    10    1
    19     9    11   ar
    20    11    12   ar
    21    12     1   ar
    22    12     6   ar
    23    24    25    1
    24    15    16    1
    25     4    13    1
    26     4    14    1
@<TRIPOS>MOLECULE
*****
 25 26 0 0 0
SMALL
GASTEIGER

@<TRIPOS>ATOM
      1 C         139.2769  139.6665  165.1815 C.ar    1  UNL1        0.1328
      2 N         138.2082  138.7180  165.6379 N.ar    1  UNL1       -0.1993
      3 C         137.9112  138.5704  167.1008 C.ar    1  UNL1        0.2148
      4 N         136.8424  137.6219  167.5571 N.pl3   1  UNL1       -0.3274
      5 N         138.6828  139.3713  168.1073 N.ar    1  UNL1       -0.2139
      6 C         139.7516  140.3198  167.6509 C.ar    1  UNL1        0.0870
      7 C         140.5233  141.1206  168.6575 C.ar    1  UNL1        0.0216
      8 C         141.5920  142.0691  168.2011 C.ar    1  UNL1        0.0312
      9 C         141.8890  142.2167  166.7382 C.ar    1  UNL1        0.1403
     10 F         142.9577  143.1652  166.2819 F       1  UNL1       -0.2042
     11 C         141.1173  141.4158  165.7317 C.ar    1  UNL1        0.0339
     12 C         140.0486  140.4674  166.1881 C.ar    1  UNL1        0.0514
     13 H         136.3359  137.0963  166.8965 H       1  UNL1        0.1452
     14 H         136.6475  137.5250  168.5172 H       1  UNL1        0.1452
     15 N         139.5739  139.8141  163.7187 N.pl3   1  UNL1       -0.3195
     16 H         140.4178  139.4658  163.3501 H       1  UNL1        0.1481
     17 C         138.5852  140.4923  162.8173 C.3     1  UNL1        0.0729
     18 C         138.4745  141.9882  162.8162 C.3     1  UNL1        0.0196
     19 C         137.7505  142.6875  163.9284 C.3     1  UNL1        0.0017
     20 C         138.8057  144.5962  165.3401 C.3     1  UNL1        0.0000
     21 C         137.9803  144.1500  164.1699 C.3     1  UNL1        0.0001
     22 C         137.7071  139.6746  161.9170 C.3     1  UNL1        0.0512
     23 C         138.0573  138.2459  161.6234 C.3     1  UNL1        0.1389
     24 O         138.4042  137.3130  162.7455 O.3     1  UNL1       -0.3819
     25 H         139.2320  137.6009  163.1612 H       1  UNL1        0.2104
@<TRIPOS>BOND
     1    20    21    1
     2    21    19    1
     3    19    18    1
     4    17    18    1
     5    17    22    1
     6    22    23    1
     7    23    24    1
     8    17    15    1
     9    15     1    1
    10     1     2   ar
    11     2     3   ar
    12     3     4    1
    13     3     5   ar
    14     5     6   ar
    15     6     7   ar
    16     7     8   ar
    17     8     9   ar
    18     9    10    1
    19     9    11   ar
    20    11    12   ar
    21    12     1   ar
    22    12     6   ar
    23    24    25    1
    24    15    16    1
    25     4    13    1
    26     4    14    1
@<TRIPOS>MOLECULE
*****
 25 26 0 0 0
SMALL
GASTEIGER

@<TRIPOS>ATOM
      1 C         141.8919  142.6325  165.0824 C.ar    1  UNL1        0.1328
      2 N         142.0830  143.9309  164.3562 N.ar    1  UNL1       -0.1993
      3 C         143.2783  144.1265  163.4714 C.ar    1  UNL1        0.2148
      4 N         143.4694  145.4251  162.7452 N.pl3   1  UNL1       -0.3274
      5 N         144.2825  143.0237  163.3127 N.ar    1  UNL1       -0.2139
      6 C         144.0914  141.7251  164.0389 C.ar    1  UNL1        0.0870
      7 C         145.0956  140.6222  163.8802 C.ar    1  UNL1        0.0216
      8 C         144.9044  139.3237  164.6063 C.ar    1  UNL1        0.0312
      9 C         143.7091  139.1281  165.4912 C.ar    1  UNL1        0.1403
     10 F         143.5180  137.8296  166.2174 F       1  UNL1       -0.2042
     11 C         142.7050  140.2310  165.6499 C.ar    1  UNL1        0.0339
     12 C         142.8961  141.5295  164.9237 C.ar    1  UNL1        0.0514
     13 H         142.8103  146.1490  162.8493 H       1  UNL1        0.1452
     14 H         144.2539  145.5535  162.1644 H       1  UNL1        0.1452
     15 N         140.6966  142.4368  165.9672 N.pl3   1  UNL1       -0.3195
     16 H         140.7511  142.6598  166.9246 H       1  UNL1        0.1481
     17 C         139.4182  141.9015  165.3935 C.3     1  UNL1        0.0729
     18 C         138.9898  140.4967  165.6981 C.3     1  UNL1        0.0196
     19 C         139.1401  139.4248  164.6595 C.3     1  UNL1        0.0017
     20 C         140.6038  137.2788  164.6145 C.3     1  UNL1        0.0000
     21 C         139.3747  138.0034  165.0772 C.3     1  UNL1        0.0001
     22 C         138.5683  142.7711  164.5150 C.3     1  UNL1        0.0512
     23 C         138.3508  144.2119  164.8709 C.3     1  UNL1        0.1389
     24 O         139.4595  145.2054  164.6873 O.3     1  UNL1       -0.3819
     25 H         140.1855  144.9957  165.2955 H       1  UNL1        0.2104
@<TRIPOS>BOND
     1    20    21    1
     2    21    19    1
     3    19    18    1
     4    17    18    1
     5    17    22    1
     6    22    23    1
     7    23    24    1
     8    17    15    1
     9    15     1    1
    10     1     2   ar
    11     2     3   ar
    12     3     4    1
    13     3     5   ar
    14     5     6   ar
    15     6     7   ar
    16     7     8   ar
    17     8     9   ar
    18     9    10    1
    19     9    11   ar
    20    11    12   ar
    21    12     1   ar
    22    12     6   ar
    23    24    25    1
    24    15    16    1
    25     4    13    1
    26     4    14    1
@<TRIPOS>MOLECULE
*****
 25 26 0 0 0
SMALL
GASTEIGER

@<TRIPOS>ATOM
      1 C         139.7734  140.4946  167.7076 C.ar    1  UNL1        0.1328
      2 N         138.9080  139.3222  168.0630 N.ar    1  UNL1       -0.1993
      3 C         137.9245  138.7862  167.0652 C.ar    1  UNL1        0.2148
      4 N         137.0590  137.6137  167.4206 N.pl3   1  UNL1       -0.3274
      5 N         137.8066  139.4226  165.7120 N.ar    1  UNL1       -0.2139
      6 C         138.6721  140.5951  165.3566 C.ar    1  UNL1        0.0870
      7 C         138.5541  141.2315  164.0035 C.ar    1  UNL1        0.0216
      8 C         139.4196  142.4039  163.6482 C.ar    1  UNL1        0.0312
      9 C         140.4030  142.9399  164.6459 C.ar    1  UNL1        0.1403
     10 F         141.2685  144.1124  164.2905 F       1  UNL1       -0.2042
     11 C         140.5210  142.3035  165.9991 C.ar    1  UNL1        0.0339
     12 C         139.6555  141.1311  166.3544 C.ar    1  UNL1        0.0514
     13 H         137.1365  137.1960  168.3087 H       1  UNL1        0.1452
     14 H         136.4136  137.2619  166.7657 H       1  UNL1        0.1452
     15 N         140.7569  141.0306  168.7054 N.pl3   1  UNL1       -0.3195
     16 H         140.4945  141.7603  169.3120 H       1  UNL1        0.1481
     17 C         142.1400  140.4548  168.7790 C.3     1  UNL1        0.0729
     18 C         142.5320  139.3267  167.8715 C.3     1  UNL1        0.0196
     19 C         143.1302  139.6187  166.5272 C.3     1  UNL1        0.0017
     20 C         141.4872  138.1620  165.1384 C.3     1  UNL1        0.0000
     21 C         142.8690  138.6960  165.3737 C.3     1  UNL1        0.0001
     22 C         143.1311  141.0073  169.7601 C.3     1  UNL1        0.0512
     23 C         143.5315  142.4511  169.6893 C.3     1  UNL1        0.1389
     24 O         144.8592  142.8887  170.2332 O.3     1  UNL1       -0.3819
     25 H         144.8716  142.7637  171.1951 H       1  UNL1        0.2104
@<TRIPOS>BOND
     1    20    21    1
     2    21    19    1
     3    19    18    1
     4    17    18    1
     5    17    22    1
     6    22    23    1
     7    23    24    1
     8    17    15    1
     9    15     1    1
    10     1     2   ar
    11     2     3   ar
    12     3     4    1
    13     3     5   ar
    14     5     6   ar
    15     6     7   ar
    16     7     8   ar
    17     8     9   ar
    18     9    10    1
    19     9    11   ar
    20    11    12   ar
    21    12     1   ar
    22    12     6   ar
    23    24    25    1
    24    15    16    1
    25     4    13    1
    26     4    14    1
@<TRIPOS>MOLECULE
*****
 25 26 0 0 0
SMALL
GASTEIGER

@<TRIPOS>ATOM
      1 C         140.2522  142.1448  164.5025 C.ar    1  UNL1        0.1328
      2 N         138.9140  142.5404  163.9525 N.ar    1  UNL1       -0.1993
      3 C         138.7340  143.8848  163.3119 C.ar    1  UNL1        0.2148
      4 N         137.3956  144.2804  162.7620 N.pl3   1  UNL1       -0.3274
      5 N         139.8923  144.8335  163.2213 N.ar    1  UNL1       -0.2139
      6 C         141.2306  144.4379  163.7713 C.ar    1  UNL1        0.0870
      7 C         142.3889  145.3866  163.6806 C.ar    1  UNL1        0.0216
      8 C         143.7272  144.9910  164.2306 C.ar    1  UNL1        0.0312
      9 C         143.9071  143.6466  164.8712 C.ar    1  UNL1        0.1403
     10 F         145.2455  143.2510  165.4211 F       1  UNL1       -0.2042
     11 C         142.7488  142.6979  164.9618 C.ar    1  UNL1        0.0339
     12 C         141.4106  143.0935  164.4119 C.ar    1  UNL1        0.0514
     13 H         136.6354  143.6577  162.8215 H       1  UNL1        0.1452
     14 H         137.2775  145.1627  162.3415 H       1  UNL1        0.1452
     15 N         140.4322  140.8005  165.1431 N.pl3   1  UNL1       -0.3195
     16 H         141.1805  140.2216  164.8706 H       1  UNL1        0.1481
     17 C         139.4721  140.3381  166.1987 C.3     1  UNL1        0.0729
     18 C         139.7413  140.6425  167.6426 C.3     1  UNL1        0.0196
     19 C         140.9410  141.4571  168.0263 C.3     1  UNL1        0.0017
     20 C         140.3360  143.3909  169.6525 C.3     1  UNL1        0.0000
     21 C         140.7941  142.9241  168.3026 C.3     1  UNL1        0.0001
     22 C         138.2427  139.5713  165.8104 C.3     1  UNL1        0.0512
     23 C         137.9924  138.2112  166.3913 C.3     1  UNL1        0.1389
     24 O         137.0070  138.0431  167.5097 O.3     1  UNL1       -0.3819
     25 H         137.3344  138.4997  168.3004 H       1  UNL1        0.2104
@<TRIPOS>BOND
     1    20    21    1
     2    21    19    1
     3    19    18    1
     4    17    18    1
     5    17    22    1
     6    22    23    1
     7    23    24    1
     8    17    15    1
     9    15     1    1
    10     1     2   ar
    11     2     3   ar
    12     3     4    1
    13     3     5   ar
    14     5     6   ar
    15     6     7   ar
    16     7     8   ar
    17     8     9   ar
    18     9    10    1
    19     9    11   ar
    20    11    12   ar
    21    12     1   ar
    22    12     6   ar
    23    24    25    1
    24    15    16    1
    25     4    13    1
    26     4    14    1
@<TRIPOS>MOLECULE
*****
 25 26 0 0 0
SMALL
GASTEIGER

@<TRIPOS>ATOM
      1 C         142.6115  141.8245  165.6436 C.ar    1  UNL1        0.1328
      2 N         143.9930  141.4080  165.2338 N.ar    1  UNL1       -0.1993
      3 C         144.7014  142.1400  164.1328 C.ar    1  UNL1        0.2148
      4 N         146.0829  141.7234  163.7229 N.pl3   1  UNL1       -0.3274
      5 N         144.0283  143.2885  163.4415 N.ar    1  UNL1       -0.2139
      6 C         142.6467  143.7051  163.8514 C.ar    1  UNL1        0.0870
      7 C         141.9737  144.8536  163.1602 C.ar    1  UNL1        0.0216
      8 C         140.5922  145.2701  163.5700 C.ar    1  UNL1        0.0312
      9 C         139.8838  144.5381  164.6711 C.ar    1  UNL1        0.1403
     10 F         138.5023  144.9547  165.0809 F       1  UNL1       -0.2042
     11 C         140.5569  143.3896  165.3623 C.ar    1  UNL1        0.0339
     12 C         141.9383  142.9731  164.9524 C.ar    1  UNL1        0.0514
     13 H         146.5247  140.9696  164.1766 H       1  UNL1        0.1452
     14 H         146.5479  142.2039  163.0003 H       1  UNL1        0.1452
     15 N         141.9031  141.0925  166.7447 N.pl3   1  UNL1       -0.3195
     16 H         140.9935  140.7450  166.5991 H       1  UNL1        0.1481
     17 C         142.5805  140.8899  168.0676 C.3     1  UNL1        0.0729
     18 C         143.1845  142.0589  168.7877 C.3     1  UNL1        0.0196
     19 C         142.3470  142.8754  169.7268 C.3     1  UNL1        0.0017
     20 C         140.2120  144.3251  170.0268 C.3     1  UNL1        0.0000
     21 C         140.9097  143.1543  169.4006 C.3     1  UNL1        0.0001
     22 C         142.6538  139.5182  168.6704 C.3     1  UNL1        0.0512
     23 C         142.4101  139.3302  170.1384 C.3     1  UNL1        0.1389
     24 O         143.5346  139.5107  171.1145 O.3     1  UNL1       -0.3819
     25 H         144.2012  138.8209  170.9710 H       1  UNL1        0.2104
@<TRIPOS>BOND
     1    20    21    1
     2    21    19    1
     3    19    18    1
     4    17    18    1
     5    17    22    1
     6    22    23    1
     7    23    24    1
     8    17    15    1
     9    15     1    1
    10     1     2   ar
    11     2     3   ar
    12     3     4    1
    13     3     5   ar
    14     5     6   ar
    15     6     7   ar
    16     7     8   ar
    17     8     9   ar
    18     9    10    1
    19     9    11   ar
    20    11    12   ar
    21    12     1   ar
    22    12     6   ar
    23    24    25    1
    24    15    16    1
    25     4    13    1
    26     4    14    1
@<TRIPOS>MOLECULE
*****
 25 26 0 0 0
SMALL
GASTEIGER

@<TRIPOS>ATOM
      1 C         139.5291  140.4456  166.5574 C.ar    1  UNL1        0.1328
      2 N         139.2417  139.9336  167.9377 N.ar    1  UNL1       -0.1993
      3 C         140.2267  140.1675  169.0445 C.ar    1  UNL1        0.2148
      4 N         139.9392  139.6554  170.4249 N.pl3   1  UNL1       -0.3274
      5 N         141.4990  140.9134  168.7711 N.ar    1  UNL1       -0.2139
      6 C         141.7864  141.4254  167.3908 C.ar    1  UNL1        0.0870
      7 C         143.0588  142.1713  167.1174 C.ar    1  UNL1        0.0216
      8 C         143.3461  142.6833  165.7371 C.ar    1  UNL1        0.0312
      9 C         142.3612  142.4494  164.6302 C.ar    1  UNL1        0.1403
     10 F         142.6486  142.9615  163.2499 F       1  UNL1       -0.2042
     11 C         141.0888  141.7036  164.9036 C.ar    1  UNL1        0.0339
     12 C         140.8015  141.1916  166.2839 C.ar    1  UNL1        0.0514
     13 H         139.1041  139.1659  170.6043 H       1  UNL1        0.1452
     14 H         140.5857  139.8089  171.1514 H       1  UNL1        0.1452
     15 N         138.5441  140.2118  165.4505 N.pl3   1  UNL1       -0.3195
     16 H         137.7453  140.7821  165.3738 H       1  UNL1        0.1481
     17 C         138.7762  139.1090  164.4606 C.3     1  UNL1        0.0729
     18 C         139.5723  137.9010  164.8566 C.3     1  UNL1        0.0196
     19 C         140.9606  137.7092  164.3216 C.3     1  UNL1        0.0017
     20 C         143.2966  138.7944  164.6612 C.3     1  UNL1        0.0000
     21 C         142.1466  137.9928  165.1950 C.3     1  UNL1        0.0001
     22 C         138.2121  139.2142  163.0746 C.3     1  UNL1        0.0512
     23 C         137.8155  140.5527  162.5260 C.3     1  UNL1        0.1389
     24 O         136.6616  141.2982  163.1284 O.3     1  UNL1       -0.3819
     25 H         135.8405  140.8072  162.9682 H       1  UNL1        0.2104
@<TRIPOS>BOND
     1    20    21    1
     2    21    19    1
     3    19    18    1
     4    17    18    1
     5    17    22    1
     6    22    23    1
     7    23    24    1
     8    17    15    1
     9    15     1    1
    10     1     2   ar
    11     2     3   ar
    12     3     4    1
    13     3     5   ar
    14     5     6   ar
    15     6     7   ar
    16     7     8   ar
    17     8     9   ar
    18     9    10    1
    19     9    11   ar
    20    11    12   ar
    21    12     1   ar
    22    12     6   ar
    23    24    25    1
    24    15    16    1
    25     4    13    1
    26     4    14    1
