@<TRIPOS>MOLECULE
*****
 26 28 0 0 0
SMALL
GASTEIGER

@<TRIPOS>ATOM
      1 C         137.7711  138.2797  166.6311 C.3     1  UNL1        0.0312
      2 C         138.7841  139.2451  166.0908 C.3     1  UNL1        0.1285
      3 N         138.5954  139.8467  164.7297 N.ar    1  UNL1       -0.2908
      4 C         138.4596  139.0894  163.4421 C.ar    1  UNL1        0.1800
      5 N         138.2897  140.0860  162.3340 N.ar    1  UNL1       -0.2195
      6 C         138.3206  141.4592  162.9367 C.ar    1  UNL1        0.1481
      7 C         138.2010  142.8251  162.3286 C.ar    1  UNL1        0.1487
      8 N         138.0121  142.9730  160.8479 N.pl3   1  UNL1       -0.3413
      9 N         138.2704  144.0433  163.2012 N.ar    1  UNL1       -0.2006
     10 C         138.4594  143.8954  164.6819 C.ar    1  UNL1        0.2264
     11 CL        138.5288  145.1135  165.5545 Cl      1  UNL1       -0.0409
     12 N         138.5789  142.5294  165.2900 N.ar    1  UNL1       -0.1976
     13 C         138.5095  141.3113  164.4174 C.ar    1  UNL1        0.1682
     14 H         137.9665  142.1735  160.2752 H       1  UNL1        0.1438
     15 H         137.9336  143.8696  160.4488 H       1  UNL1        0.1438
     16 C         139.9858  139.6087  166.9116 C.ar    1  UNL1        0.0827
     17 C         139.8092  140.2345  168.2634 C.ar    1  UNL1        0.0535
     18 C         141.0109  140.5982  169.0841 C.ar    1  UNL1        0.1416
     19 C         142.3891  140.3361  168.5532 C.ar    1  UNL1        0.0575
     20 C         142.5656  139.7104  167.2014 C.ar    1  UNL1        0.1016
     21 N         141.3639  139.3467  166.3806 N.ar    1  UNL1       -0.2461
     22 O         140.8344  141.2239  170.4359 O.3     1  UNL1       -0.4692
     23 C         140.0640  142.5034  170.5753 C.3     1  UNL1        0.2772
     24 C         140.3506  143.6551  169.6580 C.3     1  UNL1        0.3615
     25 F         140.2765  143.4664  168.1717 F       1  UNL1       -0.1942
     26 F         140.7111  144.9953  170.2269 F       1  UNL1       -0.1942
@<TRIPOS>BOND
     1     2     1    1
     2     2    16    1
     3    16    17   ar
     4    17    18   ar
     5    18    22    1
     6    22    23    1
     7    23    24    1
     8    24    25    1
     9    24    26    1
    10    18    19   ar
    11    19    20   ar
    12    20    21   ar
    13     2     3    1
    14     3     4   ar
    15     4     5   ar
    16     5     6   ar
    17     6     7   ar
    18     7     8    1
    19     7     9   ar
    20     9    10   ar
    21    10    11    1
    22    10    12   ar
    23    12    13   ar
    24    21    16   ar
    25    13     3   ar
    26    13     6   ar
    27     8    14    1
    28     8    15    1
@<TRIPOS>MOLECULE
*****
 26 28 0 0 0
SMALL
GASTEIGER

@<TRIPOS>ATOM
      1 C         139.1871  137.4792  163.8451 C.3     1  UNL1        0.0312
      2 C         138.8612  138.8507  164.3577 C.3     1  UNL1        0.1285
      3 N         138.7984  139.1040  165.8348 N.ar    1  UNL1       -0.2908
      4 C         137.7395  138.6020  166.7712 C.ar    1  UNL1        0.1800
      5 N         138.0701  139.0915  168.1500 N.ar    1  UNL1       -0.2195
      6 C         139.3333  139.8961  168.0658 C.ar    1  UNL1        0.1481
      7 C         140.1318  140.6226  169.1071 C.ar    1  UNL1        0.1487
      8 N         139.6817  140.6149  170.5380 N.pl3   1  UNL1       -0.3413
      9 N         141.3805  141.3570  168.7176 N.ar    1  UNL1       -0.2006
     10 C         141.8306  141.3647  167.2868 C.ar    1  UNL1        0.2264
     11 CL        143.0792  142.0990  166.8973 Cl      1  UNL1       -0.0409
     12 N         141.0320  140.6381  166.2454 N.ar    1  UNL1       -0.1976
     13 C         139.7834  139.9038  166.6349 C.ar    1  UNL1        0.1682
     14 H         138.8622  140.1330  170.7936 H       1  UNL1        0.1438
     15 H         140.2058  141.0918  171.2214 H       1  UNL1        0.1438
     16 C         138.5982  139.9689  163.3932 C.ar    1  UNL1        0.0827
     17 C         138.2039  141.3230  163.9042 C.ar    1  UNL1        0.0535
     18 C         137.9409  142.4412  162.9396 C.ar    1  UNL1        0.1416
     19 C         138.0721  142.2054  161.4640 C.ar    1  UNL1        0.0575
     20 C         138.4664  140.8514  160.9531 C.ar    1  UNL1        0.1016
     21 N         138.7295  139.7332  161.9177 N.ar    1  UNL1       -0.2461
     22 O         137.5466  143.7953  163.4506 O.3     1  UNL1       -0.4692
     23 C         138.5811  144.7014  164.0494 C.3     1  UNL1        0.2772
     24 C         138.8283  144.6831  165.5288 C.3     1  UNL1        0.3615
     25 F         139.7514  143.6604  166.1223 F       1  UNL1       -0.1942
     26 F         138.1525  145.6875  166.4145 F       1  UNL1       -0.1942
@<TRIPOS>BOND
     1     2     1    1
     2     2    16    1
     3    16    17   ar
     4    17    18   ar
     5    18    22    1
     6    22    23    1
     7    23    24    1
     8    24    25    1
     9    24    26    1
    10    18    19   ar
    11    19    20   ar
    12    20    21   ar
    13     2     3    1
    14     3     4   ar
    15     4     5   ar
    16     5     6   ar
    17     6     7   ar
    18     7     8    1
    19     7     9   ar
    20     9    10   ar
    21    10    11    1
    22    10    12   ar
    23    12    13   ar
    24    21    16   ar
    25    13     3   ar
    26    13     6   ar
    27     8    14    1
    28     8    15    1
@<TRIPOS>MOLECULE
*****
 26 28 0 0 0
SMALL
GASTEIGER

@<TRIPOS>ATOM
      1 C         144.8071  143.9100  165.6772 C.3     1  UNL1        0.0312
      2 C         143.8894  143.0435  164.8666 C.3     1  UNL1        0.1285
      3 N         143.1925  143.6081  163.6642 N.ar    1  UNL1       -0.2908
      4 C         143.7858  143.7693  162.2960 C.ar    1  UNL1        0.1800
      5 N         142.7399  144.3714  161.4053 N.ar    1  UNL1       -0.2195
      6 C         141.5001  144.5823  162.2229 C.ar    1  UNL1        0.1481
      7 C         140.1527  145.1430  161.8766 C.ar    1  UNL1        0.1487
      8 N         139.8730  145.6147  160.4804 N.pl3   1  UNL1       -0.3413
      9 N         139.0849  145.2319  162.9264 N.ar    1  UNL1       -0.2006
     10 C         139.3647  144.7602  164.3225 C.ar    1  UNL1        0.2264
     11 CL        138.2970  144.8491  165.3723 Cl      1  UNL1       -0.0409
     12 N         140.7122  144.1995  164.6689 N.ar    1  UNL1       -0.1976
     13 C         141.7799  144.1106  163.6191 C.ar    1  UNL1        0.1682
     14 H         140.5738  145.5563  159.7914 H       1  UNL1        0.1438
     15 H         138.9886  145.9827  160.2531 H       1  UNL1        0.1438
     16 C         143.6687  141.6125  165.2583 C.ar    1  UNL1        0.0827
     17 C         142.8608  141.2852  166.4790 C.ar    1  UNL1        0.0535
     18 C         142.6401  139.8542  166.8707 C.ar    1  UNL1        0.1416
     19 C         143.2272  138.7504  166.0417 C.ar    1  UNL1        0.0575
     20 C         144.0351  139.0778  164.8210 C.ar    1  UNL1        0.1016
     21 N         144.2558  140.5089  164.4293 N.ar    1  UNL1       -0.2461
     22 O         141.8322  139.5268  168.0914 O.3     1  UNL1       -0.4692
     23 C         140.9949  140.5869  168.7433 C.3     1  UNL1        0.2772
     24 C         139.5206  140.3748  168.9204 C.3     1  UNL1        0.3615
     25 F         138.7839  141.0995  170.0077 F       1  UNL1       -0.1942
     26 F         138.7829  139.4380  168.0102 F       1  UNL1       -0.1942
@<TRIPOS>BOND
     1     2     1    1
     2     2    16    1
     3    16    17   ar
     4    17    18   ar
     5    18    22    1
     6    22    23    1
     7    23    24    1
     8    24    25    1
     9    24    26    1
    10    18    19   ar
    11    19    20   ar
    12    20    21   ar
    13     2     3    1
    14     3     4   ar
    15     4     5   ar
    16     5     6   ar
    17     6     7   ar
    18     7     8    1
    19     7     9   ar
    20     9    10   ar
    21    10    11    1
    22    10    12   ar
    23    12    13   ar
    24    21    16   ar
    25    13     3   ar
    26    13     6   ar
    27     8    14    1
    28     8    15    1
@<TRIPOS>MOLECULE
*****
 26 28 0 0 0
SMALL
GASTEIGER

@<TRIPOS>ATOM
      1 C         138.6460  145.0101  165.5679 C.3     1  UNL1        0.0312
      2 C         139.2790  143.7400  165.0821 C.3     1  UNL1        0.1285
      3 N         138.6955  143.0128  163.9071 N.ar    1  UNL1       -0.2908
      4 C         138.0882  143.6467  162.6909 C.ar    1  UNL1        0.1800
      5 N         137.6342  142.5497  161.7742 N.ar    1  UNL1       -0.2195
      6 C         137.9609  141.2377  162.4239 C.ar    1  UNL1        0.1481
      7 C         137.7458  139.8195  161.9854 C.ar    1  UNL1        0.1487
      8 N         137.0899  139.5333  160.6671 N.pl3   1  UNL1       -0.3413
      9 N         138.1867  138.6874  162.8652 N.ar    1  UNL1       -0.2006
     10 C         138.8427  138.9736  164.1835 C.ar    1  UNL1        0.2264
     11 CL        139.2836  137.8416  165.0633 Cl      1  UNL1       -0.0409
     12 N         139.0577  140.3919  164.6219 N.ar    1  UNL1       -0.1976
     13 C         138.6168  141.5239  163.7421 C.ar    1  UNL1        0.1682
     14 H         136.8005  140.2763  160.0897 H       1  UNL1        0.1438
     15 H         136.9487  138.6024  160.3794 H       1  UNL1        0.1438
     16 C         140.4956  143.1970  165.7714 C.ar    1  UNL1        0.0827
     17 C         140.4039  142.7227  167.1916 C.ar    1  UNL1        0.0535
     18 C         141.6205  142.1797  167.8809 C.ar    1  UNL1        0.1416
     19 C         142.9287  142.1110  167.1501 C.ar    1  UNL1        0.0575
     20 C         143.0203  142.5854  165.7301 C.ar    1  UNL1        0.1016
     21 N         141.8037  143.1283  165.0408 N.ar    1  UNL1       -0.2461
     22 O         141.5289  141.7053  169.3009 O.3     1  UNL1       -0.4692
     23 C         140.8451  140.4079  169.6157 C.3     1  UNL1        0.2772
     24 C         139.4077  140.2066  169.2370 C.3     1  UNL1        0.3615
     25 F         138.3179  140.6393  170.1726 F       1  UNL1       -0.1942
     26 F         139.0601  139.5725  167.9228 F       1  UNL1       -0.1942
@<TRIPOS>BOND
     1     2     1    1
     2     2    16    1
     3    16    17   ar
     4    17    18   ar
     5    18    22    1
     6    22    23    1
     7    23    24    1
     8    24    25    1
     9    24    26    1
    10    18    19   ar
    11    19    20   ar
    12    20    21   ar
    13     2     3    1
    14     3     4   ar
    15     4     5   ar
    16     5     6   ar
    17     6     7   ar
    18     7     8    1
    19     7     9   ar
    20     9    10   ar
    21    10    11    1
    22    10    12   ar
    23    12    13   ar
    24    21    16   ar
    25    13     3   ar
    26    13     6   ar
    27     8    14    1
    28     8    15    1
@<TRIPOS>MOLECULE
*****
 26 28 0 0 0
SMALL
GASTEIGER

@<TRIPOS>ATOM
      1 C         144.5701  143.6089  165.1751 C.3     1  UNL1        0.0312
      2 C         143.2271  142.9502  165.2857 C.3     1  UNL1        0.1285
      3 N         142.0390  143.5481  164.5921 N.ar    1  UNL1       -0.2908
      4 C         142.0099  144.8608  163.8668 C.ar    1  UNL1        0.1800
      5 N         140.6244  145.0621  163.3284 N.ar    1  UNL1       -0.2195
      6 C         139.7973  143.8739  163.7209 C.ar    1  UNL1        0.1481
      7 C         138.3610  143.5232  163.4681 C.ar    1  UNL1        0.1487
      8 N         137.4867  144.4590  162.6871 N.pl3   1  UNL1       -0.3413
      9 N         137.7989  142.2366  163.9962 N.ar    1  UNL1       -0.2006
     10 C         138.6732  141.3008  164.7772 C.ar    1  UNL1        0.2264
     11 CL        138.1112  140.0143  165.3054 Cl      1  UNL1       -0.0409
     12 N         140.1096  141.6517  165.0300 N.ar    1  UNL1       -0.1976
     13 C         140.6716  142.9382  164.5019 C.ar    1  UNL1        0.1682
     14 H         137.8556  145.3034  162.3405 H       1  UNL1        0.1438
     15 H         136.5440  144.2287  162.5212 H       1  UNL1        0.1438
     16 C         143.0720  141.6936  166.0900 C.ar    1  UNL1        0.0827
     17 C         142.6756  141.7719  167.5346 C.ar    1  UNL1        0.0535
     18 C         142.5206  140.5153  168.3388 C.ar    1  UNL1        0.1416
     19 C         142.7620  139.1803  167.6986 C.ar    1  UNL1        0.0575
     20 C         143.1584  139.1021  166.2541 C.ar    1  UNL1        0.1016
     21 N         143.3134  140.3587  165.4498 N.ar    1  UNL1       -0.2461
     22 O         142.1241  140.5935  169.7834 O.3     1  UNL1       -0.4692
     23 C         140.8356  139.9776  170.2419 C.3     1  UNL1        0.2772
     24 C         139.5335  140.4417  169.6596 C.3     1  UNL1        0.3615
     25 F         138.9372  139.7212  168.4868 F       1  UNL1       -0.1942
     26 F         138.8276  141.6262  170.2501 F       1  UNL1       -0.1942
@<TRIPOS>BOND
     1     2     1    1
     2     2    16    1
     3    16    17   ar
     4    17    18   ar
     5    18    22    1
     6    22    23    1
     7    23    24    1
     8    24    25    1
     9    24    26    1
    10    18    19   ar
    11    19    20   ar
    12    20    21   ar
    13     2     3    1
    14     3     4   ar
    15     4     5   ar
    16     5     6   ar
    17     6     7   ar
    18     7     8    1
    19     7     9   ar
    20     9    10   ar
    21    10    11    1
    22    10    12   ar
    23    12    13   ar
    24    21    16   ar
    25    13     3   ar
    26    13     6   ar
    27     8    14    1
    28     8    15    1
@<TRIPOS>MOLECULE
*****
 26 28 0 0 0
SMALL
GASTEIGER

@<TRIPOS>ATOM
      1 C         137.6822  138.5679  167.0955 C.3     1  UNL1        0.0312
      2 C         138.7374  139.1905  166.2301 C.3     1  UNL1        0.1285
      3 N         138.6023  139.1507  164.7367 N.ar    1  UNL1       -0.2908
      4 C         138.7570  137.9367  163.8695 C.ar    1  UNL1        0.1800
      5 N         138.5391  138.3537  162.4452 N.ar    1  UNL1       -0.2195
      6 C         138.2496  139.8254  162.4321 C.ar    1  UNL1        0.1481
      7 C         137.9555  140.7806  161.3137 C.ar    1  UNL1        0.1487
      8 N         137.9164  140.2880  159.8974 N.pl3   1  UNL1       -0.3413
      9 N         137.7004  142.2285  161.6114 N.ar    1  UNL1       -0.2006
     10 C         137.7395  142.7211  163.0277 C.ar    1  UNL1        0.2264
     11 CL        137.4844  144.1689  163.3255 Cl      1  UNL1       -0.0409
     12 N         138.0336  141.7658  164.1462 N.ar    1  UNL1       -0.1976
     13 C         138.2886  140.3180  163.8484 C.ar    1  UNL1        0.1682
     14 H         138.0838  139.3377  159.7020 H       1  UNL1        0.1438
     15 H         137.7233  140.9149  159.1633 H       1  UNL1        0.1438
     16 C         139.9277  139.8529  166.8580 C.ar    1  UNL1        0.0827
     17 C         141.0518  140.3477  165.9968 C.ar    1  UNL1        0.0535
     18 C         142.2421  141.0101  166.6248 C.ar    1  UNL1        0.1416
     19 C         142.3084  141.1778  168.1140 C.ar    1  UNL1        0.0575
     20 C         141.1843  140.6830  168.9751 C.ar    1  UNL1        0.1016
     21 N         139.9940  140.0206  168.3471 N.ar    1  UNL1       -0.2461
     22 O         143.3662  141.5050  165.7636 O.3     1  UNL1       -0.4692
     23 C         143.6802  140.8137  164.4700 C.3     1  UNL1        0.2772
     24 C         145.0885  140.3969  164.1649 C.3     1  UNL1        0.3615
     25 F         146.0542  141.3864  163.5832 F       1  UNL1       -0.1942
     26 F         145.5310  138.9906  164.4416 F       1  UNL1       -0.1942
@<TRIPOS>BOND
     1     2     1    1
     2     2    16    1
     3    16    17   ar
     4    17    18   ar
     5    18    22    1
     6    22    23    1
     7    23    24    1
     8    24    25    1
     9    24    26    1
    10    18    19   ar
    11    19    20   ar
    12    20    21   ar
    13     2     3    1
    14     3     4   ar
    15     4     5   ar
    16     5     6   ar
    17     6     7   ar
    18     7     8    1
    19     7     9   ar
    20     9    10   ar
    21    10    11    1
    22    10    12   ar
    23    12    13   ar
    24    21    16   ar
    25    13     3   ar
    26    13     6   ar
    27     8    14    1
    28     8    15    1
@<TRIPOS>MOLECULE
*****
 26 28 0 0 0
SMALL
GASTEIGER

@<TRIPOS>ATOM
      1 C         138.8199  138.8448  164.9737 C.3     1  UNL1        0.0312
      2 C         139.5497  140.0590  165.4668 C.3     1  UNL1        0.1285
      3 N         139.3398  141.3842  164.7960 N.ar    1  UNL1       -0.2908
      4 C         138.0396  141.9040  164.2583 C.ar    1  UNL1        0.1800
      5 N         138.2895  143.2632  163.6751 N.ar    1  UNL1       -0.2195
      6 C         139.7442  143.5834  163.8524 C.ar    1  UNL1        0.1481
      7 C         140.5616  144.7823  163.4725 C.ar    1  UNL1        0.1487
      8 N         139.9124  145.9437  162.7797 N.pl3   1  UNL1       -0.3413
      9 N         142.0282  144.8200  163.7853 N.ar    1  UNL1       -0.2006
     10 C         142.6773  143.6586  164.4780 C.ar    1  UNL1        0.2264
     11 CL        144.1438  143.6962  164.7909 Cl      1  UNL1       -0.0409
     12 N         141.8598  142.4596  164.8579 N.ar    1  UNL1       -0.1976
     13 C         140.3933  142.4220  164.5451 C.ar    1  UNL1        0.1682
     14 H         138.9499  145.9190  162.5744 H       1  UNL1        0.1438
     15 H         140.4489  146.7306  162.5304 H       1  UNL1        0.1438
     16 C         140.4894  139.9481  166.6307 C.ar    1  UNL1        0.0827
     17 C         140.0959  140.5026  167.9677 C.ar    1  UNL1        0.0535
     18 C         141.0356  140.3916  169.1316 C.ar    1  UNL1        0.1416
     19 C         142.3688  139.7262  168.9585 C.ar    1  UNL1        0.0575
     20 C         142.7622  139.1718  167.6214 C.ar    1  UNL1        0.1016
     21 N         141.8225  139.2827  166.4575 N.ar    1  UNL1       -0.2461
     22 O         140.6422  140.9461  170.4687 O.3     1  UNL1       -0.4692
     23 C         140.0902  142.3371  170.5709 C.3     1  UNL1        0.2772
     24 C         140.8953  143.5017  170.0754 C.3     1  UNL1        0.3615
     25 F         142.3361  143.3131  169.7029 F       1  UNL1       -0.1942
     26 F         140.2597  144.8548  169.9525 F       1  UNL1       -0.1942
@<TRIPOS>BOND
     1     2     1    1
     2     2    16    1
     3    16    17   ar
     4    17    18   ar
     5    18    22    1
     6    22    23    1
     7    23    24    1
     8    24    25    1
     9    24    26    1
    10    18    19   ar
    11    19    20   ar
    12    20    21   ar
    13     2     3    1
    14     3     4   ar
    15     4     5   ar
    16     5     6   ar
    17     6     7   ar
    18     7     8    1
    19     7     9   ar
    20     9    10   ar
    21    10    11    1
    22    10    12   ar
    23    12    13   ar
    24    21    16   ar
    25    13     3   ar
    26    13     6   ar
    27     8    14    1
    28     8    15    1
@<TRIPOS>MOLECULE
*****
 26 28 0 0 0
SMALL
GASTEIGER

@<TRIPOS>ATOM
      1 C         140.2577  140.6637  164.6033 C.3     1  UNL1        0.0312
      2 C         141.6616  140.9499  165.0471 C.3     1  UNL1        0.1285
      3 N         142.1631  140.4009  166.3499 N.ar    1  UNL1       -0.2908
      4 C         142.8828  139.0985  166.5391 C.ar    1  UNL1        0.1800
      5 N         143.1973  138.9505  167.9982 N.ar    1  UNL1       -0.2195
      6 C         142.6720  140.1614  168.7108 C.ar    1  UNL1        0.1481
      7 C         142.6932  140.5637  170.1557 C.ar    1  UNL1        0.1487
      8 N         143.3324  139.6673  171.1745 N.pl3   1  UNL1       -0.3413
      9 N         142.0751  141.8623  170.5819 N.ar    1  UNL1       -0.2006
     10 C         141.4359  142.7587  169.5631 C.ar    1  UNL1        0.2264
     11 CL        140.8178  144.0573  169.9892 Cl      1  UNL1       -0.0409
     12 N         141.4147  142.3564  168.1181 N.ar    1  UNL1       -0.1976
     13 C         142.0328  141.0578  167.6920 C.ar    1  UNL1        0.1682
     14 H         143.7381  138.8150  170.8948 H       1  UNL1        0.1438
     15 H         143.3463  139.9313  172.1228 H       1  UNL1        0.1438
     16 C         142.5641  141.7853  164.1882 C.ar    1  UNL1        0.0827
     17 C         141.9808  142.8187  163.2707 C.ar    1  UNL1        0.0535
     18 C         142.8833  143.6541  162.4118 C.ar    1  UNL1        0.1416
     19 C         144.3690  143.4561  162.4704 C.ar    1  UNL1        0.0575
     20 C         144.9523  142.4226  163.3879 C.ar    1  UNL1        0.1016
     21 N         144.0498  141.5873  164.2468 N.ar    1  UNL1       -0.2461
     22 O         142.3001  144.6875  161.4943 O.3     1  UNL1       -0.4692
     23 C         140.8157  144.7571  161.2901 C.3     1  UNL1        0.2772
     24 C         139.9837  145.6708  162.1403 C.3     1  UNL1        0.3615
     25 F         139.7004  145.3141  163.5696 F       1  UNL1       -0.1942
     26 F         139.4349  146.9411  161.5614 F       1  UNL1       -0.1942
@<TRIPOS>BOND
     1     2     1    1
     2     2    16    1
     3    16    17   ar
     4    17    18   ar
     5    18    22    1
     6    22    23    1
     7    23    24    1
     8    24    25    1
     9    24    26    1
    10    18    19   ar
    11    19    20   ar
    12    20    21   ar
    13     2     3    1
    14     3     4   ar
    15     4     5   ar
    16     5     6   ar
    17     6     7   ar
    18     7     8    1
    19     7     9   ar
    20     9    10   ar
    21    10    11    1
    22    10    12   ar
    23    12    13   ar
    24    21    16   ar
    25    13     3   ar
    26    13     6   ar
    27     8    14    1
    28     8    15    1
@<TRIPOS>MOLECULE
*****
 26 28 0 0 0
SMALL
GASTEIGER

@<TRIPOS>ATOM
      1 C         143.1866  140.7528  163.4900 C.3     1  UNL1        0.0312
      2 C         142.1974  140.0035  164.3325 C.3     1  UNL1        0.1285
      3 N         142.5606  139.5927  165.7287 N.ar    1  UNL1       -0.2908
      4 C         143.3678  138.3878  166.1115 C.ar    1  UNL1        0.1800
      5 N         143.4863  138.3652  167.6066 N.ar    1  UNL1       -0.2195
      6 C         142.7523  139.5561  168.1479 C.ar    1  UNL1        0.1481
      7 C         142.5311  140.0477  169.5477 C.ar    1  UNL1        0.1487
      8 N         143.1032  139.2890  170.7083 N.pl3   1  UNL1       -0.3413
      9 N         141.7376  141.2980  169.7868 N.ar    1  UNL1       -0.2006
     10 C         141.1654  142.0567  168.6262 C.ar    1  UNL1        0.2264
     11 CL        140.3720  143.3069  168.8653 Cl      1  UNL1       -0.0409
     12 N         141.3867  141.5650  167.2264 N.ar    1  UNL1       -0.1976
     13 C         142.1802  140.3147  166.9873 C.ar    1  UNL1        0.1682
     14 H         143.6240  138.4684  170.5513 H       1  UNL1        0.1438
     15 H         142.9580  139.6117  171.6270 H       1  UNL1        0.1438
     16 C         140.8451  139.6649  163.7789 C.ar    1  UNL1        0.0827
     17 C         139.7906  140.7265  163.6735 C.ar    1  UNL1        0.0535
     18 C         138.4383  140.3879  163.1198 C.ar    1  UNL1        0.1416
     19 C         138.1404  138.9878  162.6715 C.ar    1  UNL1        0.0575
     20 C         139.1949  137.9262  162.7770 C.ar    1  UNL1        0.1016
     21 N         140.5472  138.2648  163.3306 N.ar    1  UNL1       -0.2461
     22 O         137.3838  141.4495  163.0144 O.3     1  UNL1       -0.4692
     23 C         137.7162  142.7789  162.4043 C.3     1  UNL1        0.2772
     24 C         137.8667  143.9886  163.2783 C.3     1  UNL1        0.3615
     25 F         138.4595  145.2483  162.7197 F       1  UNL1       -0.1942
     26 F         137.4246  143.9387  164.7107 F       1  UNL1       -0.1942
@<TRIPOS>BOND
     1     2     1    1
     2     2    16    1
     3    16    17   ar
     4    17    18   ar
     5    18    22    1
     6    22    23    1
     7    23    24    1
     8    24    25    1
     9    24    26    1
    10    18    19   ar
    11    19    20   ar
    12    20    21   ar
    13     2     3    1
    14     3     4   ar
    15     4     5   ar
    16     5     6   ar
    17     6     7   ar
    18     7     8    1
    19     7     9   ar
    20     9    10   ar
    21    10    11    1
    22    10    12   ar
    23    12    13   ar
    24    21    16   ar
    25    13     3   ar
    26    13     6   ar
    27     8    14    1
    28     8    15    1
