@<TRIPOS>MOLECULE
*****
 29 33 0 0 0
SMALL
GASTEIGER

@<TRIPOS>ATOM
      1 C         140.1907  139.7892  167.2671 C.ar    1  UNL1       -0.0206
      2 C         141.1874  139.2846  166.2662 C.ar    1  UNL1       -0.0011
      3 C         140.7234  138.4953  165.0780 C.ar    1  UNL1        0.0373
      4 C         139.2626  138.2107  164.8908 C.ar    1  UNL1        0.1477
      5 C         138.2658  138.7153  165.8918 C.ar    1  UNL1        0.0373
      6 C         138.7299  139.5046  167.0799 C.ar    1  UNL1       -0.0011
      7 C         140.6547  140.5785  168.4553 C.3     1  UNL1        0.0437
      8 C         141.0226  142.0241  168.2982 C.3     1  UNL1        0.0768
      9 C         141.2113  145.2781  160.4840 C.3     1  UNL1        0.0948
     10 C         140.1744  145.4580  161.5528 C.2     1  UNL1        0.2261
     11 O         138.9704  146.3141  161.2931 O.2     1  UNL1       -0.2749
     12 N         140.3414  144.7817  162.8812 N.am    1  UNL1       -0.2794
     13 C         139.3928  144.8681  164.0401 C.3     1  UNL1        0.0948
     14 C         139.9515  144.0401  165.1591 C.3     1  UNL1        0.0388
     15 C         139.7106  143.5818  166.5669 C.3     1  UNL1        0.0739
     16 N         140.8555  142.7004  166.9698 N.3     1  UNL1       -0.2723
     17 C         141.8041  142.6140  165.8110 C.3     1  UNL1        0.0739
     18 C         141.2454  143.4420  164.6920 C.3     1  UNL1        0.0388
     19 C         141.4864  143.9004  163.2841 C.3     1  UNL1        0.0948
     20 O         138.7985  137.4214  163.7026 O.3     1  UNL1       -0.4313
     21 C         138.8655  138.0228  162.3301 C.ar    1  UNL1        0.2642
     22 N         139.9170  137.7463  161.2967 N.ar    1  UNL1       -0.1859
     23 C         139.5941  138.5589  160.0779 C.ar    1  UNL1        0.1720
     24 N         140.2777  138.6903  158.7492 N.ar    1  UNL1       -0.2245
     25 C         139.7102  139.6005  157.7007 C.ar    1  UNL1        0.1006
     26 C         138.4592  140.3793  157.9808 C.ar    1  UNL1        0.0213
     27 C         137.7757  140.2479  159.3095 C.ar    1  UNL1        0.0113
     28 C         138.3432  139.3377  160.3581 C.ar    1  UNL1        0.0697
     29 S         137.8929  139.0064  161.7500 S.2     1  UNL1       -0.0267
@<TRIPOS>BOND
     1     9    10    1
     2    10    11    2
     3    10    12   am
     4    12    13    1
     5    13    14    1
     6    14    15    1
     7    15    16    1
     8    16     8    1
     9     8     7    1
    10     7     1    1
    11     1     2   ar
    12     2     3   ar
    13     3     4   ar
    14     4    20    1
    15    20    21    1
    16    21    22   ar
    17    22    23   ar
    18    23    24   ar
    19    24    25   ar
    20    25    26   ar
    21    26    27   ar
    22    27    28   ar
    23    28    29   ar
    24     4     5   ar
    25     5     6   ar
    26    16    17    1
    27    17    18    1
    28    18    19    1
    29    19    12    1
    30    18    14    1
    31     6     1   ar
    32    29    21   ar
    33    28    23   ar
@<TRIPOS>MOLECULE
*****
 29 33 0 0 0
SMALL
GASTEIGER

@<TRIPOS>ATOM
      1 C         138.8463  138.3342  162.6984 C.ar    1  UNL1       -0.0206
      2 C         138.2196  139.6105  163.1761 C.ar    1  UNL1       -0.0011
      3 C         137.9389  139.8077  164.6364 C.ar    1  UNL1        0.0373
      4 C         138.2850  138.7285  165.6190 C.ar    1  UNL1        0.1477
      5 C         138.9117  137.4521  165.1413 C.ar    1  UNL1        0.0373
      6 C         139.1924  137.2550  163.6810 C.ar    1  UNL1       -0.0011
      7 C         139.1269  138.1370  161.2381 C.3     1  UNL1        0.0437
      8 C         140.2451  138.8904  160.5809 C.3     1  UNL1        0.0768
      9 C         144.9300  143.8816  165.5634 C.3     1  UNL1        0.0948
     10 C         144.0034  144.2685  164.4491 C.2     1  UNL1        0.2261
     11 O         143.8170  145.7145  164.0966 O.2     1  UNL1       -0.2749
     12 N         143.2633  143.2093  163.6873 N.am    1  UNL1       -0.2794
     13 C         142.3083  143.4429  162.5544 C.3     1  UNL1        0.0948
     14 C         141.8029  142.1086  162.0915 C.3     1  UNL1        0.0388
     15 C         140.9004  141.4282  161.1053 C.3     1  UNL1        0.0739
     16 N         140.9852  139.9495  161.3427 N.3     1  UNL1       -0.2723
     17 C         141.9402  139.7160  162.4756 C.3     1  UNL1        0.0739
     18 C         142.4455  141.0503  162.9384 C.3     1  UNL1        0.0388
     19 C         143.3481  141.7306  163.9247 C.3     1  UNL1        0.0948
     20 O         138.0044  138.9256  167.0792 O.3     1  UNL1       -0.4313
     21 C         138.9707  139.6935  167.9317 C.ar    1  UNL1        0.2642
     22 N         138.8700  139.8964  169.4145 N.ar    1  UNL1       -0.1859
     23 C         140.0444  140.7216  169.8502 C.ar    1  UNL1        0.1720
     24 N         140.4679  141.2330  171.1952 N.ar    1  UNL1       -0.2245
     25 C         141.7179  142.0516  171.3267 C.ar    1  UNL1        0.1006
     26 C         142.5444  142.3587  170.1132 C.ar    1  UNL1        0.0213
     27 C         142.1209  141.8473  168.7682 C.ar    1  UNL1        0.0113
     28 C         140.8708  141.0287  168.6367 C.ar    1  UNL1        0.0697
     29 S         140.2073  140.3933  167.4510 S.2     1  UNL1       -0.0267
@<TRIPOS>BOND
     1     9    10    1
     2    10    11    2
     3    10    12   am
     4    12    13    1
     5    13    14    1
     6    14    15    1
     7    15    16    1
     8    16     8    1
     9     8     7    1
    10     7     1    1
    11     1     2   ar
    12     2     3   ar
    13     3     4   ar
    14     4    20    1
    15    20    21    1
    16    21    22   ar
    17    22    23   ar
    18    23    24   ar
    19    24    25   ar
    20    25    26   ar
    21    26    27   ar
    22    27    28   ar
    23    28    29   ar
    24     4     5   ar
    25     5     6   ar
    26    16    17    1
    27    17    18    1
    28    18    19    1
    29    19    12    1
    30    18    14    1
    31     6     1   ar
    32    29    21   ar
    33    28    23   ar
@<TRIPOS>MOLECULE
*****
 29 33 0 0 0
SMALL
GASTEIGER

@<TRIPOS>ATOM
      1 C         138.8655  140.4429  165.8259 C.ar    1  UNL1       -0.0206
      2 C         140.0824  141.1074  166.3981 C.ar    1  UNL1       -0.0011
      3 C         140.5308  142.4367  165.8670 C.ar    1  UNL1        0.0373
      4 C         139.7621  143.1015  164.7638 C.ar    1  UNL1        0.1477
      5 C         138.5451  142.4370  164.1916 C.ar    1  UNL1        0.0373
      6 C         138.0968  141.1077  164.7226 C.ar    1  UNL1       -0.0011
      7 C         138.4172  139.1136  166.3569 C.3     1  UNL1        0.0437
      8 C         138.5895  137.8771  165.5255 C.3     1  UNL1        0.0768
      9 C         140.9342  138.4830  157.4125 C.3     1  UNL1        0.0948
     10 C         141.7955  138.3392  158.6321 C.2     1  UNL1        0.2261
     11 O         143.2882  138.2864  158.4941 O.2     1  UNL1       -0.2749
     12 N         141.1641  138.2482  159.9896 N.am    1  UNL1       -0.2794
     13 C         141.8925  138.1029  161.2929 C.3     1  UNL1        0.0948
     14 C         140.8721  138.0514  162.3911 C.3     1  UNL1        0.0388
     15 C         140.6915  137.9297  163.8752 C.3     1  UNL1        0.0739
     16 N         139.2209  137.9681  164.1679 N.3     1  UNL1       -0.2723
     17 C         138.4925  138.1134  162.8648 C.3     1  UNL1        0.0739
     18 C         139.5129  138.1649  161.7666 C.3     1  UNL1        0.0388
     19 C         139.6935  138.2865  160.2824 C.3     1  UNL1        0.0948
     20 O         140.2103  144.4308  164.2327 O.3     1  UNL1       -0.4313
     21 C         140.5816  144.5742  162.7865 C.ar    1  UNL1        0.2642
     22 N         141.7518  143.9259  162.1081 N.ar    1  UNL1       -0.1859
     23 C         141.7413  144.3420  160.6671 C.ar    1  UNL1        0.1720
     24 N         142.6512  144.0134  159.5208 N.ar    1  UNL1       -0.2245
     25 C         142.3842  144.5903  158.1622 C.ar    1  UNL1        0.1006
     26 C         141.2074  145.4959  157.9499 C.ar    1  UNL1        0.0213
     27 C         140.2975  145.8245  159.0962 C.ar    1  UNL1        0.0113
     28 C         140.5645  145.2476  160.4548 C.ar    1  UNL1        0.0697
     29 S         139.8478  145.3910  161.7646 S.2     1  UNL1       -0.0267
@<TRIPOS>BOND
     1     9    10    1
     2    10    11    2
     3    10    12   am
     4    12    13    1
     5    13    14    1
     6    14    15    1
     7    15    16    1
     8    16     8    1
     9     8     7    1
    10     7     1    1
    11     1     2   ar
    12     2     3   ar
    13     3     4   ar
    14     4    20    1
    15    20    21    1
    16    21    22   ar
    17    22    23   ar
    18    23    24   ar
    19    24    25   ar
    20    25    26   ar
    21    26    27   ar
    22    27    28   ar
    23    28    29   ar
    24     4     5   ar
    25     5     6   ar
    26    16    17    1
    27    17    18    1
    28    18    19    1
    29    19    12    1
    30    18    14    1
    31     6     1   ar
    32    29    21   ar
    33    28    23   ar
@<TRIPOS>MOLECULE
*****
 29 33 0 0 0
SMALL
GASTEIGER

@<TRIPOS>ATOM
      1 C         142.9429  138.5962  165.2442 C.ar    1  UNL1       -0.0206
      2 C         143.9497  139.0348  164.2224 C.ar    1  UNL1       -0.0011
      3 C         143.7432  138.7009  162.7746 C.ar    1  UNL1        0.0373
      4 C         142.5301  137.9283  162.3487 C.ar    1  UNL1        0.1477
      5 C         141.5233  137.4897  163.3706 C.ar    1  UNL1        0.0373
      6 C         141.7298  137.8236  164.8182 C.ar    1  UNL1       -0.0011
      7 C         143.1493  138.9301  166.6919 C.3     1  UNL1        0.0437
      8 C         142.5759  140.1948  167.2591 C.3     1  UNL1        0.0768
      9 C         139.9014  146.2728  162.0063 C.3     1  UNL1        0.0948
     10 C         139.1059  145.1926  162.6773 C.2     1  UNL1        0.2261
     11 O         137.6269  145.0967  162.4460 O.2     1  UNL1       -0.2749
     12 N         139.7893  144.2084  163.5796 N.am    1  UNL1       -0.2794
     13 C         139.1285  143.0804  164.3154 C.3     1  UNL1        0.0948
     14 C         140.1843  142.3541  165.0951 C.3     1  UNL1        0.0388
     15 C         140.4284  141.2082  166.0317 C.3     1  UNL1        0.0739
     16 N         141.8925  141.1790  166.3568 N.3     1  UNL1       -0.2723
     17 C         142.5532  142.3069  165.6210 C.3     1  UNL1        0.0739
     18 C         141.4975  143.0332  164.8413 C.3     1  UNL1        0.0388
     19 C         141.2533  144.1792  163.9046 C.3     1  UNL1        0.0948
     20 O         142.3236  137.5944  160.9010 O.3     1  UNL1       -0.4313
     21 C         141.3835  138.4150  160.0687 C.ar    1  UNL1        0.2642
     22 N         139.9039  138.5446  160.2787 N.ar    1  UNL1       -0.1859
     23 C         139.3638  139.4597  159.2201 C.ar    1  UNL1        0.1720
     24 N         137.9767  139.9523  158.9314 N.ar    1  UNL1       -0.2245
     25 C         137.7354  140.8809  157.7785 C.ar    1  UNL1        0.1006
     26 C         138.8812  141.3170  156.9141 C.ar    1  UNL1        0.0213
     27 C         140.2683  140.8244  157.2028 C.ar    1  UNL1        0.0113
     28 C         140.5096  139.8958  158.3557 C.ar    1  UNL1        0.0697
     29 S         141.7578  139.2501  158.8802 S.2     1  UNL1       -0.0267
@<TRIPOS>BOND
     1     9    10    1
     2    10    11    2
     3    10    12   am
     4    12    13    1
     5    13    14    1
     6    14    15    1
     7    15    16    1
     8    16     8    1
     9     8     7    1
    10     7     1    1
    11     1     2   ar
    12     2     3   ar
    13     3     4   ar
    14     4    20    1
    15    20    21    1
    16    21    22   ar
    17    22    23   ar
    18    23    24   ar
    19    24    25   ar
    20    25    26   ar
    21    26    27   ar
    22    27    28   ar
    23    28    29   ar
    24     4     5   ar
    25     5     6   ar
    26    16    17    1
    27    17    18    1
    28    18    19    1
    29    19    12    1
    30    18    14    1
    31     6     1   ar
    32    29    21   ar
    33    28    23   ar
@<TRIPOS>MOLECULE
*****
 29 33 0 0 0
SMALL
GASTEIGER

@<TRIPOS>ATOM
      1 C         139.6873  137.7447  162.9905 C.ar    1  UNL1       -0.0206
      2 C         141.1575  137.6529  162.7074 C.ar    1  UNL1       -0.0011
      3 C         141.6888  138.0532  161.3630 C.ar    1  UNL1        0.0373
      4 C         140.7500  138.5455  160.3017 C.ar    1  UNL1        0.1477
      5 C         139.2798  138.6373  160.5849 C.ar    1  UNL1        0.0373
      6 C         138.7485  138.2370  161.9293 C.ar    1  UNL1       -0.0011
      7 C         139.1560  137.3443  164.3350 C.3     1  UNL1        0.0437
      8 C         138.4864  138.3620  165.2102 C.3     1  UNL1        0.0768
      9 C         143.9498  142.5805  170.1134 C.3     1  UNL1        0.0948
     10 C         142.5411  142.1644  170.4172 C.2     1  UNL1        0.2261
     11 O         141.9309  142.4972  171.7465 O.2     1  UNL1       -0.2749
     12 N         141.7426  141.4156  169.3918 N.am    1  UNL1       -0.2794
     13 C         140.3301  140.9365  169.5518 C.3     1  UNL1        0.0948
     14 C         139.9309  140.2391  168.2851 C.3     1  UNL1        0.0388
     15 C         138.8112  139.5121  167.6012 C.3     1  UNL1        0.0739
     16 N         139.2849  139.1108  166.2357 N.3     1  UNL1       -0.2723
     17 C         140.6973  139.5899  166.0757 C.3     1  UNL1        0.0739
     18 C         141.0966  140.2872  167.3423 C.3     1  UNL1        0.0388
     19 C         142.2163  141.0143  168.0262 C.3     1  UNL1        0.0948
     20 O         141.2813  138.9459  158.9573 O.3     1  UNL1       -0.4313
     21 C         141.6114  137.8958  157.9383 C.ar    1  UNL1        0.2642
     22 N         142.8859  137.1084  157.8647 N.ar    1  UNL1       -0.1859
     23 C         142.7872  136.1748  156.6948 C.ar    1  UNL1        0.1720
     24 N         143.7409  135.1603  156.1371 N.ar    1  UNL1       -0.2245
     25 C         143.3590  134.3562  154.9298 C.ar    1  UNL1        0.1006
     26 C         142.0234  134.5666  154.2803 C.ar    1  UNL1        0.0213
     27 C         141.0697  135.5811  154.8381 C.ar    1  UNL1        0.0113
     28 C         141.4516  136.3852  156.0453 C.ar    1  UNL1        0.0697
     29 S         140.7249  137.4489  156.8138 S.2     1  UNL1       -0.0267
@<TRIPOS>BOND
     1     9    10    1
     2    10    11    2
     3    10    12   am
     4    12    13    1
     5    13    14    1
     6    14    15    1
     7    15    16    1
     8    16     8    1
     9     8     7    1
    10     7     1    1
    11     1     2   ar
    12     2     3   ar
    13     3     4   ar
    14     4    20    1
    15    20    21    1
    16    21    22   ar
    17    22    23   ar
    18    23    24   ar
    19    24    25   ar
    20    25    26   ar
    21    26    27   ar
    22    27    28   ar
    23    28    29   ar
    24     4     5   ar
    25     5     6   ar
    26    16    17    1
    27    17    18    1
    28    18    19    1
    29    19    12    1
    30    18    14    1
    31     6     1   ar
    32    29    21   ar
    33    28    23   ar
@<TRIPOS>MOLECULE
*****
 29 33 0 0 0
SMALL
GASTEIGER

@<TRIPOS>ATOM
      1 C         140.1031  137.6674  162.9469 C.ar    1  UNL1       -0.0206
      2 C         140.9245  138.1254  161.7784 C.ar    1  UNL1       -0.0011
      3 C         140.2589  138.7794  160.6040 C.ar    1  UNL1        0.0373
      4 C         138.7718  138.9753  160.5981 C.ar    1  UNL1        0.1477
      5 C         137.9503  138.5173  161.7667 C.ar    1  UNL1        0.0373
      6 C         138.6159  137.8634  162.9411 C.ar    1  UNL1       -0.0011
      7 C         140.7687  137.0135  164.1214 C.3     1  UNL1        0.0437
      8 C         142.0193  137.6058  164.7003 C.3     1  UNL1        0.0768
      9 C         140.3670  144.0537  169.9328 C.3     1  UNL1        0.0948
     10 C         141.5528  143.1353  169.9174 C.2     1  UNL1        0.2261
     11 O         142.6467  143.3058  170.9295 O.2     1  UNL1       -0.2749
     12 N         141.6446  142.0463  168.8900 N.am    1  UNL1       -0.2794
     13 C         142.7635  141.0568  168.7516 C.3     1  UNL1        0.0948
     14 C         142.4442  140.1546  167.5966 C.3     1  UNL1        0.0388
     15 C         142.9383  138.9854  166.7972 C.3     1  UNL1        0.0739
     16 N         141.9274  138.6947  165.7278 N.3     1  UNL1       -0.2723
     17 C         140.8086  139.6842  165.8662 C.3     1  UNL1        0.0739
     18 C         141.1279  140.5864  167.0211 C.3     1  UNL1        0.0388
     19 C         140.6338  141.7556  167.8205 C.3     1  UNL1        0.0948
     20 O         138.1061  139.6293  159.4237 O.3     1  UNL1       -0.4313
     21 C         138.5612  140.9815  158.9608 C.ar    1  UNL1        0.2642
     22 N         139.0012  142.1131  159.8417 N.ar    1  UNL1       -0.1859
     23 C         139.3682  143.2705  158.9610 C.ar    1  UNL1        0.1720
     24 N         139.8689  144.6497  159.2727 N.ar    1  UNL1       -0.2245
     25 C         140.1564  145.6126  158.1592 C.ar    1  UNL1        0.1006
     26 C         139.9432  145.1964  156.7339 C.ar    1  UNL1        0.0213
     27 C         139.4424  143.8173  156.4222 C.ar    1  UNL1        0.0113
     28 C         139.1549  142.8544  157.5357 C.ar    1  UNL1        0.0697
     29 S         138.6562  141.4397  157.5356 S.2     1  UNL1       -0.0267
@<TRIPOS>BOND
     1     9    10    1
     2    10    11    2
     3    10    12   am
     4    12    13    1
     5    13    14    1
     6    14    15    1
     7    15    16    1
     8    16     8    1
     9     8     7    1
    10     7     1    1
    11     1     2   ar
    12     2     3   ar
    13     3     4   ar
    14     4    20    1
    15    20    21    1
    16    21    22   ar
    17    22    23   ar
    18    23    24   ar
    19    24    25   ar
    20    25    26   ar
    21    26    27   ar
    22    27    28   ar
    23    28    29   ar
    24     4     5   ar
    25     5     6   ar
    26    16    17    1
    27    17    18    1
    28    18    19    1
    29    19    12    1
    30    18    14    1
    31     6     1   ar
    32    29    21   ar
    33    28    23   ar
@<TRIPOS>MOLECULE
*****
 29 33 0 0 0
SMALL
GASTEIGER

@<TRIPOS>ATOM
      1 C         140.7777  138.9810  160.5702 C.ar    1  UNL1       -0.0206
      2 C         142.0935  138.3418  160.9021 C.ar    1  UNL1       -0.0011
      3 C         142.9071  137.6951  159.8205 C.ar    1  UNL1        0.0373
      4 C         142.4049  137.6876  158.4071 C.ar    1  UNL1        0.1477
      5 C         141.0890  138.3268  158.0753 C.ar    1  UNL1        0.0373
      6 C         140.2755  138.9734  159.1568 C.ar    1  UNL1       -0.0011
      7 C         139.9640  139.6277  161.6518 C.3     1  UNL1        0.0437
      8 C         140.5298  140.7790  162.4292 C.3     1  UNL1        0.0768
      9 C         140.1768  142.2371  170.7620 C.3     1  UNL1        0.0948
     10 C         139.7037  141.0371  169.9964 C.2     1  UNL1        0.2261
     11 O         139.0678  139.8880  170.7211 O.2     1  UNL1       -0.2749
     12 N         139.8664  140.9863  168.5061 N.am    1  UNL1       -0.2794
     13 C         139.4440  139.8591  167.6110 C.3     1  UNL1        0.0948
     14 C         139.7966  140.2299  166.2009 C.3     1  UNL1        0.0388
     15 C         139.7535  139.7625  164.7763 C.3     1  UNL1        0.0739
     16 N         140.3671  140.8298  163.9194 N.3     1  UNL1       -0.2723
     17 C         140.7894  141.9570  164.8145 C.3     1  UNL1        0.0739
     18 C         140.4369  141.5862  166.2245 C.3     1  UNL1        0.0388
     19 C         140.4800  142.0537  167.6493 C.3     1  UNL1        0.0948
     20 O         143.2185  137.0409  157.3255 O.3     1  UNL1       -0.4313
     21 C         142.9418  135.6219  156.9256 C.ar    1  UNL1        0.2642
     22 N         143.5489  134.3973  157.5435 N.ar    1  UNL1       -0.1859
     23 C         142.9917  133.1970  156.8373 C.ar    1  UNL1        0.1720
     24 N         143.2278  131.7268  157.0182 N.ar    1  UNL1       -0.2245
     25 C         142.5123  130.7393  156.1447 C.ar    1  UNL1        0.1006
     26 C         141.5608  131.2220  155.0903 C.ar    1  UNL1        0.0213
     27 C         141.3247  132.6922  154.9095 C.ar    1  UNL1        0.0113
     28 C         142.0401  133.6797  155.7830 C.ar    1  UNL1        0.0697
     29 S         142.0093  135.1784  155.8375 S.2     1  UNL1       -0.0267
@<TRIPOS>BOND
     1     9    10    1
     2    10    11    2
     3    10    12   am
     4    12    13    1
     5    13    14    1
     6    14    15    1
     7    15    16    1
     8    16     8    1
     9     8     7    1
    10     7     1    1
    11     1     2   ar
    12     2     3   ar
    13     3     4   ar
    14     4    20    1
    15    20    21    1
    16    21    22   ar
    17    22    23   ar
    18    23    24   ar
    19    24    25   ar
    20    25    26   ar
    21    26    27   ar
    22    27    28   ar
    23    28    29   ar
    24     4     5   ar
    25     5     6   ar
    26    16    17    1
    27    17    18    1
    28    18    19    1
    29    19    12    1
    30    18    14    1
    31     6     1   ar
    32    29    21   ar
    33    28    23   ar
@<TRIPOS>MOLECULE
*****
 29 33 0 0 0
SMALL
GASTEIGER

@<TRIPOS>ATOM
      1 C         140.5708  140.6739  167.2261 C.ar    1  UNL1       -0.0206
      2 C         140.3236  142.1027  166.8425 C.ar    1  UNL1       -0.0011
      3 C         141.3860  142.8813  166.1248 C.ar    1  UNL1        0.0373
      4 C         142.6958  142.2309  165.7908 C.ar    1  UNL1        0.1477
      5 C         142.9430  140.8020  166.1744 C.ar    1  UNL1        0.0373
      6 C         141.8806  140.0235  166.8921 C.ar    1  UNL1       -0.0011
      7 C         139.5084  139.8953  167.9439 C.3     1  UNL1        0.0437
      8 C         138.4702  139.1463  167.1621 C.3     1  UNL1        0.0768
      9 C         137.9730  140.4488  158.8109 C.3     1  UNL1        0.0948
     10 C         138.5922  139.2985  159.5480 C.2     1  UNL1        0.2261
     11 O         139.2354  138.1782  158.7857 O.2     1  UNL1       -0.2749
     12 N         138.5681  139.2685  161.0475 N.am    1  UNL1       -0.2794
     13 C         139.1437  138.1903  161.9172 C.3     1  UNL1        0.0948
     14 C         138.8956  138.5669  163.3478 C.3     1  UNL1        0.0388
     15 C         139.0980  138.1333  164.7694 C.3     1  UNL1        0.0739
     16 N         138.4942  139.1763  165.6626 N.3     1  UNL1       -0.2723
     17 C         137.9187  140.2545  164.7930 C.3     1  UNL1        0.0739
     18 C         138.1668  139.8779  163.3624 C.3     1  UNL1        0.0388
     19 C         137.9644  140.3115  161.9407 C.3     1  UNL1        0.0948
     20 O         143.7582  143.0094  165.0731 O.3     1  UNL1       -0.4313
     21 C         143.7652  143.0631  163.5741 C.ar    1  UNL1        0.2642
     22 N         142.7539  143.7590  162.7120 N.ar    1  UNL1       -0.1859
     23 C         143.1483  143.5563  161.2791 C.ar    1  UNL1        0.1720
     24 N         142.5268  144.0134  159.9927 N.ar    1  UNL1       -0.2245
     25 C         143.1604  143.6493  158.6827 C.ar    1  UNL1        0.1006
     26 C         144.4154  142.8282  158.6592 C.ar    1  UNL1        0.0213
     27 C         145.0370  142.3711  159.9455 C.ar    1  UNL1        0.0113
     28 C         144.4034  142.7352  161.2555 C.ar    1  UNL1        0.0697
     29 S         144.7846  142.4304  162.6738 S.2     1  UNL1       -0.0267
@<TRIPOS>BOND
     1     9    10    1
     2    10    11    2
     3    10    12   am
     4    12    13    1
     5    13    14    1
     6    14    15    1
     7    15    16    1
     8    16     8    1
     9     8     7    1
    10     7     1    1
    11     1     2   ar
    12     2     3   ar
    13     3     4   ar
    14     4    20    1
    15    20    21    1
    16    21    22   ar
    17    22    23   ar
    18    23    24   ar
    19    24    25   ar
    20    25    26   ar
    21    26    27   ar
    22    27    28   ar
    23    28    29   ar
    24     4     5   ar
    25     5     6   ar
    26    16    17    1
    27    17    18    1
    28    18    19    1
    29    19    12    1
    30    18    14    1
    31     6     1   ar
    32    29    21   ar
    33    28    23   ar
@<TRIPOS>MOLECULE
*****
 29 33 0 0 0
SMALL
GASTEIGER

@<TRIPOS>ATOM
      1 C         142.4751  141.7659  156.5854 C.ar    1  UNL1       -0.0206
      2 C         143.5873  142.1088  157.5315 C.ar    1  UNL1       -0.0011
      3 C         143.4115  143.2189  158.5249 C.ar    1  UNL1        0.0373
      4 C         142.1234  143.9861  158.5721 C.ar    1  UNL1        0.1477
      5 C         141.0111  143.6431  157.6259 C.ar    1  UNL1        0.0373
      6 C         141.1870  142.5330  156.6326 C.ar    1  UNL1       -0.0011
      7 C         142.6509  140.6557  155.5920 C.3     1  UNL1        0.0437
      8 C         142.2934  139.2486  155.9687 C.3     1  UNL1        0.0768
      9 C         141.1355  137.2630  164.1175 C.3     1  UNL1        0.0948
     10 C         140.1140  137.6496  163.0895 C.2     1  UNL1        0.2261
     11 O         138.6632  137.7213  163.4638 O.2     1  UNL1       -0.2749
     12 N         140.5432  137.9645  161.6871 N.am    1  UNL1       -0.2794
     13 C         139.6406  138.3637  160.5574 C.3     1  UNL1        0.0948
     14 C         140.4899  138.5814  159.3403 C.3     1  UNL1        0.0388
     15 C         140.4571  138.9626  157.8900 C.3     1  UNL1        0.0739
     16 N         141.8642  138.9337  157.3711 N.3     1  UNL1       -0.2723
     17 C         142.7667  138.5345  158.5007 C.3     1  UNL1        0.0739
     18 C         141.9174  138.3168  159.7178 C.3     1  UNL1        0.0388
     19 C         141.9503  137.9355  161.1682 C.3     1  UNL1        0.0948
     20 O         141.9475  145.0962  159.5654 O.3     1  UNL1       -0.4313
     21 C         141.1008  144.8839  160.7853 C.ar    1  UNL1        0.2642
     22 N         139.6031  144.8073  160.8166 N.ar    1  UNL1       -0.1859
     23 C         139.1798  144.5871  162.2386 C.ar    1  UNL1        0.1720
     24 N         137.8285  144.4330  162.8712 N.ar    1  UNL1       -0.2245
     25 C         137.7133  144.2195  164.3514 C.ar    1  UNL1        0.1006
     26 C         138.9494  144.1600  165.1991 C.ar    1  UNL1        0.0213
     27 C         140.3007  144.3140  164.5665 C.ar    1  UNL1        0.0113
     28 C         140.4159  144.5276  163.0863 C.ar    1  UNL1        0.0697
     29 S         141.6031  144.7111  162.1880 S.2     1  UNL1       -0.0267
@<TRIPOS>BOND
     1     9    10    1
     2    10    11    2
     3    10    12   am
     4    12    13    1
     5    13    14    1
     6    14    15    1
     7    15    16    1
     8    16     8    1
     9     8     7    1
    10     7     1    1
    11     1     2   ar
    12     2     3   ar
    13     3     4   ar
    14     4    20    1
    15    20    21    1
    16    21    22   ar
    17    22    23   ar
    18    23    24   ar
    19    24    25   ar
    20    25    26   ar
    21    26    27   ar
    22    27    28   ar
    23    28    29   ar
    24     4     5   ar
    25     5     6   ar
    26    16    17    1
    27    17    18    1
    28    18    19    1
    29    19    12    1
    30    18    14    1
    31     6     1   ar
    32    29    21   ar
    33    28    23   ar
