@<TRIPOS>MOLECULE
*****
 33 37 0 0 0
SMALL
GASTEIGER

@<TRIPOS>ATOM
      1 C         139.6186  140.6269  168.0036 C.ar    1  UNL1        0.0328
      2 C         138.7099  139.7003  168.7556 C.ar    1  UNL1        0.1001
      3 N         137.8582  138.7163  168.0098 N.ar    1  UNL1       -0.2420
      4 C         137.9152  138.6589  166.5120 C.ar    1  UNL1        0.1078
      5 C         138.8239  139.5855  165.7600 C.ar    1  UNL1        0.1207
      6 C         139.6756  140.5696  166.5058 C.ar    1  UNL1        0.0583
      7 C         138.8809  139.5282  164.2622 C.2     1  UNL1        0.3780
      8 N         138.0164  140.3080  163.3164 N.2     1  UNL1       -0.0307
      9 C         138.4136  139.9427  161.9168 C.2     1  UNL1        0.2343
     10 C         137.9080  140.3958  160.5794 C.2     1  UNL1        0.0794
     11 C         138.5123  139.8433  159.3226 C.2     1  UNL1        0.1402
     12 F         138.0067  140.2964  157.9850 F       1  UNL1       -0.2044
     13 C         139.6223  138.8376  159.4034 C.2     1  UNL1        0.0125
     14 C         140.1279  138.3844  160.7409 C.3     1  UNL1        0.1060
     15 C         139.5236  138.9370  161.9976 C.2     1  UNL1        0.2179
     16 N         139.8124  138.6808  163.4471 N.2     1  UNL1       -0.0346
     17 N         140.5844  141.4962  165.7538 N.pl3   1  UNL1       -0.3071
     18 C         140.0985  142.8554  165.3455 C.3     1  UNL1        0.0921
     19 C         141.0072  143.7820  164.5935 C.3     1  UNL1        0.0369
     20 C         142.4018  143.3496  164.2498 C.3     1  UNL1        0.0542
     21 N         143.3105  144.2763  163.4978 N.3     1  UNL1       -0.3221
     22 C         142.8877  141.9905  164.6581 C.3     1  UNL1        0.0369
     23 C         141.9789  141.0638  165.4101 C.3     1  UNL1        0.0921
     24 H         142.8204  145.1495  163.3034 H       1  UNL1        0.1188
     25 H         143.5894  143.8400  162.6190 H       1  UNL1        0.1188
     26 C         144.1887  141.9452  170.0956 C.3     1  UNL1        0.0311
     27 C         142.7554  142.2701  169.7954 C.ar    1  UNL1       -0.0196
     28 C         142.1739  143.5791  170.2410 C.ar    1  UNL1        0.0254
     29 C         140.7406  143.9040  169.9407 C.ar    1  UNL1        0.1398
     30 F         140.1591  145.2129  170.3863 F       1  UNL1       -0.2042
     31 C         139.8889  142.9199  169.1949 C.ar    1  UNL1        0.0297
     32 C         140.4704  141.6110  168.7494 C.ar    1  UNL1        0.0046
     33 C         141.9037  141.2861  169.0496 C.ar    1  UNL1       -0.0040
@<TRIPOS>BOND
     1    26    27    1
     2    27    28   ar
     3    28    29   ar
     4    29    30    1
     5    29    31   ar
     6    31    32   ar
     7    32     1    1
     8     1     2   ar
     9     2     3   ar
    10     3     4   ar
    11     4     5   ar
    12     5     7    1
    13     7     8    2
    14     8     9    1
    15     9    10    2
    16    10    11    1
    17    11    12    1
    18    11    13    2
    19    13    14    1
    20    14    15    1
    21    15    16    2
    22     5     6   ar
    23     6    17    1
    24    17    18    1
    25    18    19    1
    26    19    20    1
    27    20    21    1
    28    20    22    1
    29    22    23    1
    30    32    33   ar
    31    33    27   ar
    32     6     1   ar
    33    23    17    1
    34    16     7    1
    35    15     9    1
    36    21    24    1
    37    21    25    1
@<TRIPOS>MOLECULE
*****
 33 37 0 0 0
SMALL
GASTEIGER

@<TRIPOS>ATOM
      1 C         139.5900  140.4211  167.9711 C.ar    1  UNL1        0.0328
      2 C         138.6395  139.5222  168.7048 C.ar    1  UNL1        0.1001
      3 N         137.7451  138.5922  167.9400 N.ar    1  UNL1       -0.2420
      4 C         137.8012  138.5611  166.4414 C.ar    1  UNL1        0.1078
      5 C         138.7516  139.4600  165.7076 C.ar    1  UNL1        0.1207
      6 C         139.6461  140.3900  166.4724 C.ar    1  UNL1        0.0583
      7 C         138.8077  139.4289  164.2090 C.2     1  UNL1        0.3780
      8 N         137.9563  140.2400  163.2778 N.2     1  UNL1       -0.0307
      9 C         138.3474  139.8936  161.8717 C.2     1  UNL1        0.2343
     10 C         137.8493  140.3793  160.5428 C.2     1  UNL1        0.0794
     11 C         138.4445  139.8398  159.2761 C.2     1  UNL1        0.1402
     12 F         137.9465  140.3254  157.9471 F       1  UNL1       -0.2044
     13 C         139.5377  138.8145  159.3382 C.2     1  UNL1        0.0125
     14 C         140.0357  138.3289  160.6671 C.3     1  UNL1        0.1060
     15 C         139.4406  138.8684  161.9339 C.2     1  UNL1        0.2179
     16 N         139.7250  138.5812  163.3784 N.2     1  UNL1       -0.0346
     17 N         140.5966  141.2890  165.7386 N.pl3   1  UNL1       -0.3071
     18 C         141.9687  140.7987  165.3822 C.3     1  UNL1        0.0921
     19 C         142.9192  141.6976  164.6484 C.3     1  UNL1        0.0369
     20 C         142.4977  143.0868  164.2711 C.3     1  UNL1        0.0542
     21 N         143.4483  143.9857  163.5374 N.3     1  UNL1       -0.3221
     22 C         141.1257  143.5772  164.6276 C.3     1  UNL1        0.0369
     23 C         140.1751  142.6782  165.3614 C.3     1  UNL1        0.0921
     24 H         144.3276  143.4938  163.3788 H       1  UNL1        0.1188
     25 H         143.6225  144.8228  164.0936 H       1  UNL1        0.1188
     26 C         140.3468  144.9488  170.4057 C.3     1  UNL1        0.0311
     27 C         140.8629  143.6150  169.9532 C.ar    1  UNL1       -0.0196
     28 C         142.2734  143.2113  170.2656 C.ar    1  UNL1        0.0254
     29 C         142.7895  141.8775  169.8131 C.ar    1  UNL1        0.1398
     30 F         144.1999  141.4738  170.1254 F       1  UNL1       -0.2042
     31 C         141.8950  140.9475  169.0482 C.ar    1  UNL1        0.0297
     32 C         140.4845  141.3512  168.7359 C.ar    1  UNL1        0.0046
     33 C         139.9685  142.6849  169.1884 C.ar    1  UNL1       -0.0040
@<TRIPOS>BOND
     1    26    27    1
     2    27    28   ar
     3    28    29   ar
     4    29    30    1
     5    29    31   ar
     6    31    32   ar
     7    32     1    1
     8     1     2   ar
     9     2     3   ar
    10     3     4   ar
    11     4     5   ar
    12     5     7    1
    13     7     8    2
    14     8     9    1
    15     9    10    2
    16    10    11    1
    17    11    12    1
    18    11    13    2
    19    13    14    1
    20    14    15    1
    21    15    16    2
    22     5     6   ar
    23     6    17    1
    24    17    18    1
    25    18    19    1
    26    19    20    1
    27    20    21    1
    28    20    22    1
    29    22    23    1
    30    32    33   ar
    31    33    27   ar
    32     6     1   ar
    33    23    17    1
    34    16     7    1
    35    15     9    1
    36    21    24    1
    37    21    25    1
@<TRIPOS>MOLECULE
*****
 33 37 0 0 0
SMALL
GASTEIGER

@<TRIPOS>ATOM
      1 C         141.9283  140.0072  167.2646 C.ar    1  UNL1        0.0328
      2 C         142.9529  139.0134  167.7254 C.ar    1  UNL1        0.1001
      3 N         143.8501  138.3437  166.7273 N.ar    1  UNL1       -0.2420
      4 C         143.7227  138.6678  165.2682 C.ar    1  UNL1        0.1078
      5 C         142.6981  139.6616  164.8074 C.ar    1  UNL1        0.1207
      6 C         141.8009  140.3314  165.8056 C.ar    1  UNL1        0.0583
      7 C         142.5707  139.9858  163.3484 C.2     1  UNL1        0.3780
      8 N         143.4677  140.8991  162.5665 N.2     1  UNL1       -0.0307
      9 C         142.9753  140.9313  161.1500 C.2     1  UNL1        0.2343
     10 C         143.4656  141.6587  159.9333 C.2     1  UNL1        0.0794
     11 C         142.7547  141.4926  158.6230 C.2     1  UNL1        0.1402
     12 F         143.2450  142.2201  157.4062 F       1  UNL1       -0.2044
     13 C         141.5535  140.5992  158.5294 C.2     1  UNL1        0.0125
     14 C         141.0632  139.8718  159.7461 C.3     1  UNL1        0.1060
     15 C         141.7741  140.0378  161.0564 C.2     1  UNL1        0.2179
     16 N         141.5241  139.4535  162.4151 N.2     1  UNL1       -0.0346
     17 N         140.7762  141.3253  165.3448 N.pl3   1  UNL1       -0.3071
     18 C         139.3670  140.8830  165.0832 C.3     1  UNL1        0.0921
     19 C         138.3423  141.8768  164.6224 C.3     1  UNL1        0.0369
     20 C         138.7269  143.3130  164.4232 C.3     1  UNL1        0.0542
     21 N         137.7022  144.3068  163.9624 N.3     1  UNL1       -0.3221
     22 C         140.1361  143.7552  164.6847 C.3     1  UNL1        0.0369
     23 C         141.1608  142.7613  165.1456 C.3     1  UNL1        0.0921
     24 H         136.8060  143.8368  163.8349 H       1  UNL1        0.1188
     25 H         138.0002  144.7167  163.0772 H       1  UNL1        0.1188
     26 C         140.6552  144.1857  170.0788 C.3     1  UNL1        0.0311
     27 C         140.3945  142.7663  169.6699 C.ar    1  UNL1       -0.0196
     28 C         139.2365  142.0166  170.2591 C.ar    1  UNL1        0.0254
     29 C         138.9758  140.5972  169.8502 C.ar    1  UNL1        0.1398
     30 F         137.8178  139.8475  170.4394 F       1  UNL1       -0.2042
     31 C         139.8731  139.9274  168.8520 C.ar    1  UNL1        0.0297
     32 C         141.0310  140.6770  168.2628 C.ar    1  UNL1        0.0046
     33 C         141.2917  142.0965  168.6717 C.ar    1  UNL1       -0.0040
@<TRIPOS>BOND
     1    26    27    1
     2    27    28   ar
     3    28    29   ar
     4    29    30    1
     5    29    31   ar
     6    31    32   ar
     7    32     1    1
     8     1     2   ar
     9     2     3   ar
    10     3     4   ar
    11     4     5   ar
    12     5     7    1
    13     7     8    2
    14     8     9    1
    15     9    10    2
    16    10    11    1
    17    11    12    1
    18    11    13    2
    19    13    14    1
    20    14    15    1
    21    15    16    2
    22     5     6   ar
    23     6    17    1
    24    17    18    1
    25    18    19    1
    26    19    20    1
    27    20    21    1
    28    20    22    1
    29    22    23    1
    30    32    33   ar
    31    33    27   ar
    32     6     1   ar
    33    23    17    1
    34    16     7    1
    35    15     9    1
    36    21    24    1
    37    21    25    1
@<TRIPOS>MOLECULE
*****
 33 37 0 0 0
SMALL
GASTEIGER

@<TRIPOS>ATOM
      1 C         140.0993  138.7898  164.1626 C.ar    1  UNL1        0.0328
      2 C         140.4921  137.4268  163.6749 C.ar    1  UNL1        0.1001
      3 N         141.0550  137.2575  162.2949 N.ar    1  UNL1       -0.2420
      4 C         141.2251  138.4512  161.4026 C.ar    1  UNL1        0.1078
      5 C         140.8324  139.8142  161.8904 C.ar    1  UNL1        0.1207
      6 C         140.2695  139.9835  163.2704 C.ar    1  UNL1        0.0583
      7 C         141.0025  141.0080  160.9981 C.2     1  UNL1        0.3780
      8 N         139.9163  141.9478  160.5661 N.2     1  UNL1       -0.0307
      9 C         140.5312  142.9921  159.6822 C.2     1  UNL1        0.2343
     10 C         139.9453  144.1731  158.9667 C.2     1  UNL1        0.0794
     11 C         140.8259  145.0596  158.1369 C.2     1  UNL1        0.1402
     12 F         140.2401  146.2407  157.4213 F       1  UNL1       -0.2044
     13 C         142.2922  144.7652  158.0226 C.2     1  UNL1        0.0125
     14 C         142.8781  143.5842  158.7381 C.3     1  UNL1        0.1060
     15 C         141.9975  142.6977  159.5679 C.2     1  UNL1        0.2179
     16 N         142.2888  141.4714  160.3812 N.2     1  UNL1       -0.0346
     17 N         139.8767  141.3466  163.7582 N.pl3   1  UNL1       -0.3071
     18 C         138.4299  141.7406  163.7985 C.3     1  UNL1        0.0921
     19 C         138.0371  143.1036  164.2863 C.3     1  UNL1        0.0369
     20 C         139.0911  144.0726  164.7338 C.3     1  UNL1        0.0542
     21 N         138.6983  145.4356  165.2216 N.3     1  UNL1       -0.3221
     22 C         140.5379  143.6786  164.6935 C.3     1  UNL1        0.0369
     23 C         140.9307  142.3155  164.2057 C.3     1  UNL1        0.0921
     24 H         137.6836  145.5317  165.1814 H       1  UNL1        0.1188
     25 H         139.1308  146.1458  164.6309 H       1  UNL1        0.1188
     26 C         140.4279  140.8058  168.9405 C.3     1  UNL1        0.0311
     27 C         139.7007  139.9672  167.9316 C.ar    1  UNL1       -0.0196
     28 C         138.4106  139.2979  168.3028 C.ar    1  UNL1        0.0254
     29 C         137.6834  138.4592  167.2939 C.ar    1  UNL1        0.1398
     30 F         136.3934  137.7899  167.6650 F       1  UNL1       -0.2042
     31 C         138.2464  138.2899  165.9138 C.ar    1  UNL1        0.0297
     32 C         139.5364  138.9592  165.5427 C.ar    1  UNL1        0.0046
     33 C         140.2636  139.7978  166.5516 C.ar    1  UNL1       -0.0040
@<TRIPOS>BOND
     1    26    27    1
     2    27    28   ar
     3    28    29   ar
     4    29    30    1
     5    29    31   ar
     6    31    32   ar
     7    32     1    1
     8     1     2   ar
     9     2     3   ar
    10     3     4   ar
    11     4     5   ar
    12     5     7    1
    13     7     8    2
    14     8     9    1
    15     9    10    2
    16    10    11    1
    17    11    12    1
    18    11    13    2
    19    13    14    1
    20    14    15    1
    21    15    16    2
    22     5     6   ar
    23     6    17    1
    24    17    18    1
    25    18    19    1
    26    19    20    1
    27    20    21    1
    28    20    22    1
    29    22    23    1
    30    32    33   ar
    31    33    27   ar
    32     6     1   ar
    33    23    17    1
    34    16     7    1
    35    15     9    1
    36    21    24    1
    37    21    25    1
@<TRIPOS>MOLECULE
*****
 33 37 0 0 0
SMALL
GASTEIGER

@<TRIPOS>ATOM
      1 C         141.9948  140.0623  166.9123 C.ar    1  UNL1        0.0328
      2 C         143.0422  139.0454  167.2571 C.ar    1  UNL1        0.1001
      3 N         143.8209  138.3715  166.1665 N.ar    1  UNL1       -0.2420
      4 C         143.5524  138.7146  164.7312 C.ar    1  UNL1        0.1078
      5 C         142.5050  139.7315  164.3864 C.ar    1  UNL1        0.1207
      6 C         141.7263  140.4054  165.4770 C.ar    1  UNL1        0.0583
      7 C         142.2365  140.0746  162.9511 C.2     1  UNL1        0.3780
      8 N         142.8184  141.2339  162.1979 N.2     1  UNL1       -0.0307
      9 C         142.2804  141.1944  160.7982 C.2     1  UNL1        0.2343
     10 C         142.5051  142.0833  159.6111 C.2     1  UNL1        0.0794
     11 C         141.8153  141.7885  158.3122 C.2     1  UNL1        0.1402
     12 F         142.0399  142.6775  157.1250 F       1  UNL1       -0.2044
     13 C         140.9008  140.6048  158.2004 C.2     1  UNL1        0.0125
     14 C         140.6762  139.7158  159.3875 C.3     1  UNL1        0.1060
     15 C         141.3660  140.0106  160.6864 C.2     1  UNL1        0.2179
     16 N         141.3388  139.3186  162.0169 N.2     1  UNL1       -0.0346
     17 N         140.6789  141.4223  165.1322 N.pl3   1  UNL1       -0.3071
     18 C         141.0577  142.8651  164.9739 C.3     1  UNL1        0.0921
     19 C         140.0104  143.8820  164.6292 C.3     1  UNL1        0.0369
     20 C         138.5842  143.4563  164.4428 C.3     1  UNL1        0.0542
     21 N         137.5369  144.4733  164.0981 N.3     1  UNL1       -0.3221
     22 C         138.2053  142.0136  164.6011 C.3     1  UNL1        0.0369
     23 C         139.2527  140.9966  164.9459 C.3     1  UNL1        0.0921
     24 H         137.9676  145.3954  164.0303 H       1  UNL1        0.1188
     25 H         136.8217  144.4847  164.8252 H       1  UNL1        0.1188
     26 C         138.0926  140.0168  170.3431 C.3     1  UNL1        0.0311
     27 C         139.2649  140.7135  169.7183 C.ar    1  UNL1       -0.0196
     28 C         139.6583  142.0840  170.1840 C.ar    1  UNL1        0.0254
     29 C         140.8307  142.7806  169.5592 C.ar    1  UNL1        0.1398
     30 F         141.2241  144.1511  170.0249 F       1  UNL1       -0.2042
     31 C         141.6095  142.1067  168.4686 C.ar    1  UNL1        0.0297
     32 C         141.2160  140.7362  168.0029 C.ar    1  UNL1        0.0046
     33 C         140.0437  140.0396  168.6277 C.ar    1  UNL1       -0.0040
@<TRIPOS>BOND
     1    26    27    1
     2    27    28   ar
     3    28    29   ar
     4    29    30    1
     5    29    31   ar
     6    31    32   ar
     7    32     1    1
     8     1     2   ar
     9     2     3   ar
    10     3     4   ar
    11     4     5   ar
    12     5     7    1
    13     7     8    2
    14     8     9    1
    15     9    10    2
    16    10    11    1
    17    11    12    1
    18    11    13    2
    19    13    14    1
    20    14    15    1
    21    15    16    2
    22     5     6   ar
    23     6    17    1
    24    17    18    1
    25    18    19    1
    26    19    20    1
    27    20    21    1
    28    20    22    1
    29    22    23    1
    30    32    33   ar
    31    33    27   ar
    32     6     1   ar
    33    23    17    1
    34    16     7    1
    35    15     9    1
    36    21    24    1
    37    21    25    1
@<TRIPOS>MOLECULE
*****
 33 37 0 0 0
SMALL
GASTEIGER

@<TRIPOS>ATOM
      1 C         139.5737  142.2959  161.8014 C.ar    1  UNL1        0.0328
      2 C         138.0760  142.3644  161.7558 C.ar    1  UNL1        0.1001
      3 N         137.2804  142.2338  163.0207 N.ar    1  UNL1       -0.2420
      4 C         137.9826  142.0346  164.3312 C.ar    1  UNL1        0.1078
      5 C         139.4803  141.9661  164.3767 C.ar    1  UNL1        0.1207
      6 C         140.2758  142.0967  163.1118 C.ar    1  UNL1        0.0583
      7 C         140.1825  141.7670  165.6872 C.2     1  UNL1        0.3780
      8 N         140.7432  140.4734  166.1994 N.2     1  UNL1       -0.0307
      9 C         141.3545  140.7334  167.5443 C.2     1  UNL1        0.2343
     10 C         142.0540  139.8338  168.5197 C.2     1  UNL1        0.0794
     11 C         142.5706  140.3885  169.8140 C.2     1  UNL1        0.1402
     12 F         143.2702  139.4889  170.7895 F       1  UNL1       -0.2044
     13 C         142.3878  141.8427  170.1330 C.2     1  UNL1        0.0125
     14 C         141.6883  142.7423  169.1576 C.3     1  UNL1        0.1060
     15 C         141.1716  142.1876  167.8633 C.2     1  UNL1        0.2179
     16 N         140.4473  142.8264  166.7155 N.2     1  UNL1       -0.0346
     17 N         141.7736  142.0282  163.1573 N.pl3   1  UNL1       -0.3071
     18 C         142.4697  140.7107  162.9854 C.3     1  UNL1        0.0921
     19 C         143.9674  140.6421  163.0309 C.3     1  UNL1        0.0369
     20 C         144.7691  141.8911  163.2483 C.3     1  UNL1        0.0542
     21 N         146.2669  141.8226  163.2938 N.3     1  UNL1       -0.3221
     22 C         144.0731  143.2087  163.4202 C.3     1  UNL1        0.0369
     23 C         142.5753  143.2772  163.3747 C.3     1  UNL1        0.0921
     24 H         146.5672  140.8570  163.1600 H       1  UNL1        0.1188
     25 H         146.5952  142.1585  164.1992 H       1  UNL1        0.1188
     26 C         141.8304  140.1161  157.6594 C.3     1  UNL1        0.0311
     27 C         141.4976  141.3366  158.4655 C.ar    1  UNL1       -0.0196
     28 C         141.9605  142.6877  158.0066 C.ar    1  UNL1        0.0254
     29 C         141.6277  143.9081  158.8127 C.ar    1  UNL1        0.1398
     30 F         142.0905  145.2591  158.3539 F       1  UNL1       -0.2042
     31 C         140.8321  143.7775  160.0776 C.ar    1  UNL1        0.0297
     32 C         140.3693  142.4265  160.5364 C.ar    1  UNL1        0.0046
     33 C         140.7021  141.2060  159.7303 C.ar    1  UNL1       -0.0040
@<TRIPOS>BOND
     1    26    27    1
     2    27    28   ar
     3    28    29   ar
     4    29    30    1
     5    29    31   ar
     6    31    32   ar
     7    32     1    1
     8     1     2   ar
     9     2     3   ar
    10     3     4   ar
    11     4     5   ar
    12     5     7    1
    13     7     8    2
    14     8     9    1
    15     9    10    2
    16    10    11    1
    17    11    12    1
    18    11    13    2
    19    13    14    1
    20    14    15    1
    21    15    16    2
    22     5     6   ar
    23     6    17    1
    24    17    18    1
    25    18    19    1
    26    19    20    1
    27    20    21    1
    28    20    22    1
    29    22    23    1
    30    32    33   ar
    31    33    27   ar
    32     6     1   ar
    33    23    17    1
    34    16     7    1
    35    15     9    1
    36    21    24    1
    37    21    25    1
@<TRIPOS>MOLECULE
*****
 33 37 0 0 0
SMALL
GASTEIGER

@<TRIPOS>ATOM
      1 C         139.0918  141.6814  163.2645 C.ar    1  UNL1        0.0328
      2 C         137.8384  142.3408  162.7705 C.ar    1  UNL1        0.1001
      3 N         137.7615  142.8433  161.3593 N.ar    1  UNL1       -0.2420
      4 C         138.9381  142.6864  160.4421 C.ar    1  UNL1        0.1078
      5 C         140.1915  142.0270  160.9361 C.ar    1  UNL1        0.1207
      6 C         140.2683  141.5245  162.3473 C.ar    1  UNL1        0.0583
      7 C         141.3680  141.8701  160.0190 C.2     1  UNL1        0.3780
      8 N         142.5404  142.8007  159.9217 N.2     1  UNL1       -0.0307
      9 C         143.4757  142.2608  158.8807 C.2     1  UNL1        0.2343
     10 C         144.7917  142.7571  158.3595 C.2     1  UNL1        0.0794
     11 C         145.5134  141.9891  157.2921 C.2     1  UNL1        0.1402
     12 F         146.8295  142.4853  156.7709 F       1  UNL1       -0.2044
     13 C         144.9190  140.7248  156.7460 C.2     1  UNL1        0.0125
     14 C         143.6030  140.2285  157.2672 C.3     1  UNL1        0.1060
     15 C         142.8813  140.9965  158.3345 C.2     1  UNL1        0.2179
     16 N         141.5787  140.7550  159.0380 N.2     1  UNL1       -0.0346
     17 N         141.5218  140.8650  162.8415 N.pl3   1  UNL1       -0.3071
     18 C         142.6398  141.6984  163.3943 C.3     1  UNL1        0.0921
     19 C         143.8932  141.0390  163.8883 C.3     1  UNL1        0.0369
     20 C         144.0287  139.5462  163.8297 C.3     1  UNL1        0.0542
     21 N         145.2821  138.8869  164.3237 N.3     1  UNL1       -0.3221
     22 C         142.9106  138.7129  163.2769 C.3     1  UNL1        0.0369
     23 C         141.6572  139.3723  162.7827 C.3     1  UNL1        0.0921
     24 H         145.9299  139.5984  164.6621 H       1  UNL1        0.1188
     25 H         145.7161  138.3670  163.5610 H       1  UNL1        0.1188
     26 C         137.7473  138.2018  166.8818 C.3     1  UNL1        0.0311
     27 C         138.4965  139.4390  166.4844 C.ar    1  UNL1       -0.0196
     28 C         139.3226  140.1737  167.4982 C.ar    1  UNL1        0.0254
     29 C         140.0718  141.4110  167.1008 C.ar    1  UNL1        0.1398
     30 F         140.8979  142.1457  168.1146 F       1  UNL1       -0.2042
     31 C         139.9949  141.9135  165.6895 C.ar    1  UNL1        0.0297
     32 C         139.1688  141.1788  164.6758 C.ar    1  UNL1        0.0046
     33 C         138.4196  139.9416  165.0732 C.ar    1  UNL1       -0.0040
@<TRIPOS>BOND
     1    26    27    1
     2    27    28   ar
     3    28    29   ar
     4    29    30    1
     5    29    31   ar
     6    31    32   ar
     7    32     1    1
     8     1     2   ar
     9     2     3   ar
    10     3     4   ar
    11     4     5   ar
    12     5     7    1
    13     7     8    2
    14     8     9    1
    15     9    10    2
    16    10    11    1
    17    11    12    1
    18    11    13    2
    19    13    14    1
    20    14    15    1
    21    15    16    2
    22     5     6   ar
    23     6    17    1
    24    17    18    1
    25    18    19    1
    26    19    20    1
    27    20    21    1
    28    20    22    1
    29    22    23    1
    30    32    33   ar
    31    33    27   ar
    32     6     1   ar
    33    23    17    1
    34    16     7    1
    35    15     9    1
    36    21    24    1
    37    21    25    1
@<TRIPOS>MOLECULE
*****
 33 37 0 0 0
SMALL
GASTEIGER

@<TRIPOS>ATOM
      1 C         140.6288  138.8145  164.9638 C.ar    1  UNL1        0.0328
      2 C         141.0078  137.3954  164.6600 C.ar    1  UNL1        0.1001
      3 N         141.0777  136.9260  163.2371 N.ar    1  UNL1       -0.2420
      4 C         140.7684  137.8757  162.1180 C.ar    1  UNL1        0.1078
      5 C         140.3894  139.2948  162.4218 C.ar    1  UNL1        0.1207
      6 C         140.3196  139.7643  163.8447 C.ar    1  UNL1        0.0583
      7 C         140.0802  140.2446  161.3026 C.2     1  UNL1        0.3780
      8 N         138.8864  140.1809  160.3967 N.2     1  UNL1       -0.0307
      9 C         138.9789  141.3217  159.4271 C.2     1  UNL1        0.2343
     10 C         138.0856  141.7598  158.3046 C.2     1  UNL1        0.0794
     11 C         138.4433  142.9666  157.4888 C.2     1  UNL1        0.1402
     12 F         137.5501  143.4047  156.3662 F       1  UNL1       -0.2044
     13 C         139.6943  143.7354  157.7955 C.2     1  UNL1        0.0125
     14 C         140.5876  143.2973  158.9181 C.3     1  UNL1        0.1060
     15 C         140.2299  142.0904  159.7339 C.2     1  UNL1        0.2179
     16 N         140.9105  141.4247  160.8930 N.2     1  UNL1       -0.0346
     17 N         139.9406  141.1835  164.1485 N.pl3   1  UNL1       -0.3071
     18 C         141.0079  142.2153  164.3630 C.3     1  UNL1        0.0921
     19 C         140.6290  143.6345  164.6668 C.3     1  UNL1        0.0369
     20 C         139.1825  144.0218  164.7562 C.3     1  UNL1        0.0542
     21 N         138.8036  145.4410  165.0601 N.3     1  UNL1       -0.3221
     22 C         138.1152  142.9900  164.5418 C.3     1  UNL1        0.0369
     23 C         138.4942  141.5708  164.2379 C.3     1  UNL1        0.0921
     24 H         139.6481  146.0012  165.1752 H       1  UNL1        0.1188
     25 H         138.2564  145.4700  165.9204 H       1  UNL1        0.1188
     26 C         142.9775  140.6766  169.2084 C.3     1  UNL1        0.0311
     27 C         141.7333  140.2150  168.5090 C.ar    1  UNL1       -0.0196
     28 C         140.4194  140.2230  169.2326 C.ar    1  UNL1        0.0254
     29 C         139.1752  139.7615  168.5333 C.ar    1  UNL1        0.1398
     30 F         137.8613  139.7694  169.2568 F       1  UNL1       -0.2042
     31 C         139.2451  139.2920  167.1103 C.ar    1  UNL1        0.0297
     32 C         140.5590  139.2840  166.3868 C.ar    1  UNL1        0.0046
     33 C         141.8031  139.7456  167.0861 C.ar    1  UNL1       -0.0040
@<TRIPOS>BOND
     1    26    27    1
     2    27    28   ar
     3    28    29   ar
     4    29    30    1
     5    29    31   ar
     6    31    32   ar
     7    32     1    1
     8     1     2   ar
     9     2     3   ar
    10     3     4   ar
    11     4     5   ar
    12     5     7    1
    13     7     8    2
    14     8     9    1
    15     9    10    2
    16    10    11    1
    17    11    12    1
    18    11    13    2
    19    13    14    1
    20    14    15    1
    21    15    16    2
    22     5     6   ar
    23     6    17    1
    24    17    18    1
    25    18    19    1
    26    19    20    1
    27    20    21    1
    28    20    22    1
    29    22    23    1
    30    32    33   ar
    31    33    27   ar
    32     6     1   ar
    33    23    17    1
    34    16     7    1
    35    15     9    1
    36    21    24    1
    37    21    25    1
@<TRIPOS>MOLECULE
*****
 33 37 0 0 0
SMALL
GASTEIGER

@<TRIPOS>ATOM
      1 C         140.1616  139.2705  162.3645 C.ar    1  UNL1        0.0328
      2 C         139.4089  137.9921  162.5861 C.ar    1  UNL1        0.1001
      3 N         139.0777  137.5489  163.9803 N.ar    1  UNL1       -0.2420
      4 C         139.4992  138.3840  165.1528 C.ar    1  UNL1        0.1078
      5 C         140.2519  139.6624  164.9312 C.ar    1  UNL1        0.1207
      6 C         140.5831  140.1057  163.5370 C.ar    1  UNL1        0.0583
      7 C         140.6734  140.4975  166.1038 C.2     1  UNL1        0.3780
      8 N         142.0332  140.5059  166.7370 N.2     1  UNL1       -0.0307
      9 C         142.0093  141.4844  167.8736 C.2     1  UNL1        0.2343
     10 C         143.0616  141.9094  168.8544 C.2     1  UNL1        0.0794
     11 C         142.7393  142.9309  169.9045 C.2     1  UNL1        0.1402
     12 F         143.7916  143.3559  170.8853 F       1  UNL1       -0.2044
     13 C         141.3648  143.5274  169.9737 C.2     1  UNL1        0.0125
     14 C         140.3125  143.1024  168.9929 C.3     1  UNL1        0.1060
     15 C         140.6347  142.0809  167.9428 C.2     1  UNL1        0.2179
     16 N         139.8091  141.4710  166.8490 N.2     1  UNL1       -0.0346
     17 N         141.3358  141.3841  163.3154 N.pl3   1  UNL1       -0.3071
     18 C         140.5919  142.6809  163.1931 C.3     1  UNL1        0.0921
     19 C         141.3445  143.9593  162.9714 C.3     1  UNL1        0.0369
     20 C         142.8412  143.9409  162.8720 C.3     1  UNL1        0.0542
     21 N         143.5938  145.2193  162.6503 N.3     1  UNL1       -0.3221
     22 C         143.5851  142.6442  162.9943 C.3     1  UNL1        0.0369
     23 C         142.8324  141.3657  163.2160 C.3     1  UNL1        0.0921
     24 H         142.9351  145.9959  162.5916 H       1  UNL1        0.1188
     25 H         144.1230  145.1559  161.7807 H       1  UNL1        0.1188
     26 C         138.9777  142.0161  158.1147 C.3     1  UNL1        0.0311
     27 C         139.9008  141.0866  158.8454 C.ar    1  UNL1       -0.0196
     28 C         141.1552  140.6005  158.1818 C.ar    1  UNL1        0.0254
     29 C         142.0784  139.6710  158.9125 C.ar    1  UNL1        0.1398
     30 F         143.3327  139.1849  158.2490 F       1  UNL1       -0.2042
     31 C         141.7472  139.2277  160.3067 C.ar    1  UNL1        0.0297
     32 C         140.4928  139.7138  160.9702 C.ar    1  UNL1        0.0046
     33 C         139.5697  140.6433  160.2396 C.ar    1  UNL1       -0.0040
@<TRIPOS>BOND
     1    26    27    1
     2    27    28   ar
     3    28    29   ar
     4    29    30    1
     5    29    31   ar
     6    31    32   ar
     7    32     1    1
     8     1     2   ar
     9     2     3   ar
    10     3     4   ar
    11     4     5   ar
    12     5     7    1
    13     7     8    2
    14     8     9    1
    15     9    10    2
    16    10    11    1
    17    11    12    1
    18    11    13    2
    19    13    14    1
    20    14    15    1
    21    15    16    2
    22     5     6   ar
    23     6    17    1
    24    17    18    1
    25    18    19    1
    26    19    20    1
    27    20    21    1
    28    20    22    1
    29    22    23    1
    30    32    33   ar
    31    33    27   ar
    32     6     1   ar
    33    23    17    1
    34    16     7    1
    35    15     9    1
    36    21    24    1
    37    21    25    1
