@<TRIPOS>MOLECULE
*****
 37 40 0 0 0
SMALL
GASTEIGER

@<TRIPOS>ATOM
      1 O         137.0329  141.5227  162.8558 O.3     1  UNL1       -0.4517
      2 N         140.2505  141.1530  166.6889 N.ar    1  UNL1       -0.2105
      3 N         139.8192  139.7974  166.2132 N.ar    1  UNL1       -0.1619
      4 C         138.8638  139.9887  165.0728 C.ar    1  UNL1        0.1283
      5 C         138.7046  141.4626  164.8437 C.ar    1  UNL1        0.1098
      6 C         137.8899  142.2424  163.8547 C.ar    1  UNL1        0.2312
      7 N         137.9323  143.7417  163.8644 N.ar    1  UNL1       -0.1892
      8 C         138.7893  144.4612  164.8632 C.ar    1  UNL1        0.2029
      9 N         139.6040  143.6815  165.8523 N.ar    1  UNL1       -0.2046
     10 C         139.5616  142.1821  165.8426 C.ar    1  UNL1        0.1715
     11 C         140.8321  141.0623  169.2194 C.ar    1  UNL1        0.0870
     12 C         141.7850  141.3401  170.3441 C.ar    1  UNL1        0.0119
     13 C         143.1091  141.9863  170.0630 C.ar    1  UNL1        0.0017
     14 C         143.4803  142.3547  168.6572 C.ar    1  UNL1        0.0130
     15 C         142.5275  142.0770  167.5325 C.ar    1  UNL1        0.0760
     16 CL        142.8988  142.4455  166.1266 Cl      1  UNL1       -0.0807
     17 C         141.2033  141.4308  167.8136 C.ar    1  UNL1        0.1045
     18 N         138.1838  139.7699  169.7818 N.1     1  UNL1       -0.1908
     19 C         139.5080  140.4161  169.5006 C.1     1  UNL1        0.1020
     20 C         137.6641  140.8467  161.6749 C.3     1  UNL1        0.2722
     21 C         138.6533  141.5891  160.8260 C.2     1  UNL1        0.2701
     22 O         139.8582  140.8791  160.2838 O.2     1  UNL1       -0.2707
     23 N         138.4375  143.0415  160.5194 N.am    1  UNL1       -0.2663
     24 H         137.6466  143.5075  160.8753 H       1  UNL1        0.1564
     25 C         139.4266  143.7839  159.6706 C.ar    1  UNL1        0.1344
     26 C         140.4122  144.7167  160.3096 C.ar    1  UNL1        0.0368
     27 C         141.4013  145.4591  159.4608 C.ar    1  UNL1        0.0341
     28 C         141.4048  145.2687  157.9729 C.ar    1  UNL1        0.1593
     29 F         142.3938  146.0111  157.1241 F       1  UNL1       -0.2025
     30 C         140.4191  144.3358  157.3339 C.ar    1  UNL1        0.1298
     31 N         139.4300  143.5934  158.1828 N.ar    1  UNL1       -0.2267
     32 C         137.3063  139.4284  161.3428 C.3     1  UNL1        0.1952
     33 O         137.9791  138.2971  162.0622 O.3     1  UNL1       -0.3467
     34 C         139.3261  137.8162  161.6100 C.3     1  UNL1        0.1740
     35 C         140.5175  137.9696  162.5084 C.3     1  UNL1        0.1692
     36 O         141.3652  136.7774  162.8400 O.3     1  UNL1       -0.3794
     37 H         140.8465  136.1476  163.3645 H       1  UNL1        0.2105
@<TRIPOS>BOND
     1    18    19    3
     2    19    11    1
     3    11    12   ar
     4    12    13   ar
     5    13    14   ar
     6    14    15   ar
     7    15    16    1
     8    15    17   ar
     9    17     2    1
    10     2     3   ar
    11     3     4   ar
    12     4     5   ar
    13     5     6   ar
    14     6     1    1
    15     1    20    1
    16    20    32    1
    17    32    33    1
    18    33    34    1
    19    34    35    1
    20    35    36    1
    21    20    21    1
    22    21    22    2
    23    21    23   am
    24    23    25    1
    25    25    26   ar
    26    26    27   ar
    27    27    28   ar
    28    28    29    1
    29    28    30   ar
    30    30    31   ar
    31     6     7   ar
    32     7     8   ar
    33     8     9   ar
    34     9    10   ar
    35    17    11   ar
    36    10     2   ar
    37    10     5   ar
    38    31    25   ar
    39    36    37    1
    40    23    24    1
@<TRIPOS>MOLECULE
*****
 37 40 0 0 0
SMALL
GASTEIGER

@<TRIPOS>ATOM
      1 O         141.9724  144.5822  160.4738 O.3     1  UNL1       -0.4517
      2 N         140.6604  141.4504  164.1689 N.ar    1  UNL1       -0.2105
      3 N         141.7653  140.8706  163.3363 N.ar    1  UNL1       -0.1619
      4 C         142.1010  141.8585  162.2587 C.ar    1  UNL1        0.1283
      5 C         141.2035  143.0489  162.4253 C.ar    1  UNL1        0.1098
      6 C         141.0820  144.3300  161.6545 C.ar    1  UNL1        0.2312
      7 N         140.0703  145.3587  162.0642 N.ar    1  UNL1       -0.1892
      8 C         139.1800  145.1065  163.2447 C.ar    1  UNL1        0.2029
      9 N         139.3015  143.8254  164.0155 N.ar    1  UNL1       -0.2046
     10 C         140.3132  142.7966  163.6058 C.ar    1  UNL1        0.1715
     11 C         138.9027  139.8127  165.1580 C.ar    1  UNL1        0.0870
     12 C         138.2582  139.1607  166.3452 C.ar    1  UNL1        0.0119
     13 C         138.7268  139.4943  167.7305 C.ar    1  UNL1        0.0017
     14 C         139.8399  140.4800  167.9285 C.ar    1  UNL1        0.0130
     15 C         140.4845  141.1320  166.7413 C.ar    1  UNL1        0.0760
     16 CL        141.5977  142.1177  166.9395 Cl      1  UNL1       -0.0807
     17 C         140.0159  140.7984  165.3561 C.ar    1  UNL1        0.1045
     18 N         137.9654  139.1453  162.3875 N.1     1  UNL1       -0.1908
     19 C         138.4341  139.4790  163.7727 C.1     1  UNL1        0.1020
     20 C         141.5130  144.2105  159.0951 C.3     1  UNL1        0.2722
     21 C         141.3719  145.2683  158.0410 C.2     1  UNL1        0.2701
     22 O         142.4659  146.2739  157.8363 O.2     1  UNL1       -0.2707
     23 N         140.1367  145.3205  157.1915 N.am    1  UNL1       -0.2663
     24 H         139.4187  144.6605  157.3258 H       1  UNL1        0.1564
     25 C         139.9955  146.3783  156.1374 C.ar    1  UNL1        0.1344
     26 C         139.1066  147.5624  156.3774 C.ar    1  UNL1        0.0368
     27 C         138.9654  148.6201  155.3233 C.ar    1  UNL1        0.0341
     28 C         139.7132  148.4938  154.0291 C.ar    1  UNL1        0.1593
     29 F         139.5720  149.5515  152.9750 F       1  UNL1       -0.2025
     30 C         140.6022  147.3096  153.7891 C.ar    1  UNL1        0.1298
     31 N         140.7433  146.2519  154.8433 N.ar    1  UNL1       -0.2267
     32 C         141.1948  142.7811  158.7706 C.3     1  UNL1        0.1952
     33 O         139.8736  142.4281  158.1543 O.3     1  UNL1       -0.3467
     34 C         138.6005  142.7152  158.8937 C.3     1  UNL1        0.1740
     35 C         138.4367  142.2548  160.3119 C.3     1  UNL1        0.1692
     36 O         137.6608  143.0901  161.2867 O.3     1  UNL1       -0.3794
     37 H         138.1285  143.9259  161.4404 H       1  UNL1        0.2105
@<TRIPOS>BOND
     1    18    19    3
     2    19    11    1
     3    11    12   ar
     4    12    13   ar
     5    13    14   ar
     6    14    15   ar
     7    15    16    1
     8    15    17   ar
     9    17     2    1
    10     2     3   ar
    11     3     4   ar
    12     4     5   ar
    13     5     6   ar
    14     6     1    1
    15     1    20    1
    16    20    32    1
    17    32    33    1
    18    33    34    1
    19    34    35    1
    20    35    36    1
    21    20    21    1
    22    21    22    2
    23    21    23   am
    24    23    25    1
    25    25    26   ar
    26    26    27   ar
    27    27    28   ar
    28    28    29    1
    29    28    30   ar
    30    30    31   ar
    31     6     7   ar
    32     7     8   ar
    33     8     9   ar
    34     9    10   ar
    35    17    11   ar
    36    10     2   ar
    37    10     5   ar
    38    31    25   ar
    39    36    37    1
    40    23    24    1
@<TRIPOS>MOLECULE
*****
 37 40 0 0 0
SMALL
GASTEIGER

@<TRIPOS>ATOM
      1 O         137.0566  141.3814  162.8062 O.3     1  UNL1       -0.4517
      2 N         140.1797  141.2074  166.7303 N.ar    1  UNL1       -0.2105
      3 N         139.7809  139.8282  166.2959 N.ar    1  UNL1       -0.1619
      4 C         138.8524  139.9612  165.1253 C.ar    1  UNL1        0.1283
      5 C         138.6773  141.4227  164.8364 C.ar    1  UNL1        0.1098
      6 C         137.8769  142.1517  163.7981 C.ar    1  UNL1        0.2312
      7 N         137.8968  143.6508  163.7518 N.ar    1  UNL1       -0.1892
      8 C         138.7171  144.4209  164.7437 C.ar    1  UNL1        0.2029
      9 N         139.5175  143.6920  165.7820 N.ar    1  UNL1       -0.2046
     10 C         139.4976  142.1929  165.8283 C.ar    1  UNL1        0.1715
     11 C         142.4780  142.0628  167.5883 C.ar    1  UNL1        0.0870
     12 C         143.3974  142.3977  168.7251 C.ar    1  UNL1        0.0119
     13 C         142.9379  142.2124  170.1409 C.ar    1  UNL1        0.0017
     14 C         141.5590  141.6920  170.4198 C.ar    1  UNL1        0.0130
     15 C         140.6396  141.3570  169.2830 C.ar    1  UNL1        0.0760
     16 CL        139.2607  140.8367  169.5620 Cl      1  UNL1       -0.0807
     17 C         141.0991  141.5424  167.8672 C.ar    1  UNL1        0.1045
     18 N         143.3971  142.4335  164.7567 N.1     1  UNL1       -0.1908
     19 C         142.9375  142.2481  166.1725 C.1     1  UNL1        0.1020
     20 C         137.7175  140.7460  161.6190 C.3     1  UNL1        0.2722
     21 C         138.4910  141.5903  160.6500 C.2     1  UNL1        0.2701
     22 O         138.3219  141.3838  159.1740 O.2     1  UNL1       -0.2707
     23 N         139.4337  142.6411  161.1572 N.am    1  UNL1       -0.2663
     24 H         139.5447  142.7766  162.1260 H       1  UNL1        0.1564
     25 C         140.2073  143.4854  160.1884 C.ar    1  UNL1        0.1344
     26 C         141.5027  142.9827  159.6235 C.ar    1  UNL1        0.0368
     27 C         142.2763  143.8270  158.6547 C.ar    1  UNL1        0.0341
     28 C         141.7544  145.1741  158.2506 C.ar    1  UNL1        0.1593
     29 F         142.5279  146.0184  157.2818 F       1  UNL1       -0.2025
     30 C         140.4589  145.6767  158.8155 C.ar    1  UNL1        0.1298
     31 N         139.6853  144.8323  159.7844 N.ar    1  UNL1       -0.2267
     32 C         137.6048  139.2662  161.4007 C.3     1  UNL1        0.1952
     33 O         138.6968  138.3530  161.8736 O.3     1  UNL1       -0.3467
     34 C         140.0023  138.3007  161.1367 C.3     1  UNL1        0.1740
     35 C         141.2462  137.8532  161.8455 C.3     1  UNL1        0.1692
     36 O         141.1658  136.7950  162.9056 O.3     1  UNL1       -0.3794
     37 H         140.6607  137.1326  163.6617 H       1  UNL1        0.2105
@<TRIPOS>BOND
     1    18    19    3
     2    19    11    1
     3    11    12   ar
     4    12    13   ar
     5    13    14   ar
     6    14    15   ar
     7    15    16    1
     8    15    17   ar
     9    17     2    1
    10     2     3   ar
    11     3     4   ar
    12     4     5   ar
    13     5     6   ar
    14     6     1    1
    15     1    20    1
    16    20    32    1
    17    32    33    1
    18    33    34    1
    19    34    35    1
    20    35    36    1
    21    20    21    1
    22    21    22    2
    23    21    23   am
    24    23    25    1
    25    25    26   ar
    26    26    27   ar
    27    27    28   ar
    28    28    29    1
    29    28    30   ar
    30    30    31   ar
    31     6     7   ar
    32     7     8   ar
    33     8     9   ar
    34     9    10   ar
    35    17    11   ar
    36    10     2   ar
    37    10     5   ar
    38    31    25   ar
    39    36    37    1
    40    23    24    1
@<TRIPOS>MOLECULE
*****
 37 40 0 0 0
SMALL
GASTEIGER

@<TRIPOS>ATOM
      1 O         138.9979  138.1336  160.8821 O.3     1  UNL1       -0.4517
      2 N         139.1385  140.2090  165.4489 N.ar    1  UNL1       -0.2105
      3 N         138.0629  140.8288  164.6069 N.ar    1  UNL1       -0.1619
      4 C         138.0824  140.1604  163.2642 C.ar    1  UNL1        0.1283
      5 C         139.1702  139.1275  163.2763 C.ar    1  UNL1        0.1098
      6 C         139.6507  138.1636  162.2324 C.ar    1  UNL1        0.2312
      7 N         140.7838  137.2297  162.5386 N.ar    1  UNL1       -0.1892
      8 C         141.4364  137.2597  163.8888 C.ar    1  UNL1        0.2029
      9 N         140.9560  138.2237  164.9328 N.ar    1  UNL1       -0.2046
     10 C         139.8228  139.1576  164.6265 C.ar    1  UNL1        0.1715
     11 C         138.8321  139.8355  168.0016 C.ar    1  UNL1        0.0870
     12 C         139.1650  140.2027  169.4174 C.ar    1  UNL1        0.0119
     13 C         140.1370  141.3105  169.6962 C.ar    1  UNL1        0.0017
     14 C         140.7763  142.0512  168.5592 C.ar    1  UNL1        0.0130
     15 C         140.4434  141.6840  167.1434 C.ar    1  UNL1        0.0760
     16 CL        141.0827  142.4247  166.0065 Cl      1  UNL1       -0.0807
     17 C         139.4714  140.5762  166.8646 C.ar    1  UNL1        0.1045
     18 N         136.8880  137.6198  167.4442 N.1     1  UNL1       -0.1908
     19 C         137.8601  138.7277  167.7229 C.1     1  UNL1        0.1020
     20 C         139.4154  139.1128  159.8253 C.3     1  UNL1        0.2722
     21 C         139.2600  140.5856  160.0641 C.2     1  UNL1        0.2701
     22 O         138.0437  141.3031  159.5586 O.2     1  UNL1       -0.2707
     23 N         140.3211  141.3407  160.8084 N.am    1  UNL1       -0.2663
     24 H         141.1194  140.8698  161.1402 H       1  UNL1        0.1564
     25 C         140.1657  142.8134  161.0472 C.ar    1  UNL1        0.1344
     26 C         139.5162  143.3045  162.3069 C.ar    1  UNL1        0.0368
     27 C         139.3608  144.7772  162.5457 C.ar    1  UNL1        0.0341
     28 C         139.8551  145.7588  161.5248 C.ar    1  UNL1        0.1593
     29 F         139.6998  147.2315  161.7636 F       1  UNL1       -0.2025
     30 C         140.5047  145.2677  160.2651 C.ar    1  UNL1        0.1298
     31 N         140.6600  143.7949  160.0263 N.ar    1  UNL1       -0.2267
     32 C         139.9883  138.6194  158.5298 C.3     1  UNL1        0.1952
     33 O         141.4648  138.3882  158.4024 O.3     1  UNL1       -0.3467
     34 C         142.2867  139.2655  157.5052 C.3     1  UNL1        0.1740
     35 C         141.9096  140.7045  157.3129 C.3     1  UNL1        0.1692
     36 O         142.1820  141.7027  158.3989 O.3     1  UNL1       -0.3794
     37 H         141.6370  141.4943  159.1738 H       1  UNL1        0.2105
@<TRIPOS>BOND
     1    18    19    3
     2    19    11    1
     3    11    12   ar
     4    12    13   ar
     5    13    14   ar
     6    14    15   ar
     7    15    16    1
     8    15    17   ar
     9    17     2    1
    10     2     3   ar
    11     3     4   ar
    12     4     5   ar
    13     5     6   ar
    14     6     1    1
    15     1    20    1
    16    20    32    1
    17    32    33    1
    18    33    34    1
    19    34    35    1
    20    35    36    1
    21    20    21    1
    22    21    22    2
    23    21    23   am
    24    23    25    1
    25    25    26   ar
    26    26    27   ar
    27    27    28   ar
    28    28    29    1
    29    28    30   ar
    30    30    31   ar
    31     6     7   ar
    32     7     8   ar
    33     8     9   ar
    34     9    10   ar
    35    17    11   ar
    36    10     2   ar
    37    10     5   ar
    38    31    25   ar
    39    36    37    1
    40    23    24    1
@<TRIPOS>MOLECULE
*****
 37 40 0 0 0
SMALL
GASTEIGER

@<TRIPOS>ATOM
      1 O         141.0124  145.4716  162.8831 O.3     1  UNL1       -0.4517
      2 N         141.2011  142.2407  166.7182 N.ar    1  UNL1       -0.2105
      3 N         139.7832  142.5922  166.3775 N.ar    1  UNL1       -0.1619
      4 C         139.8080  143.5563  165.2286 C.ar    1  UNL1        0.1283
      5 C         141.2412  143.8006  164.8594 C.ar    1  UNL1        0.1098
      6 C         141.8735  144.6585  163.8038 C.ar    1  UNL1        0.2312
      7 N         143.3667  144.7033  163.6688 N.ar    1  UNL1       -0.1892
      8 C         144.2276  143.8902  164.5894 C.ar    1  UNL1        0.2029
      9 N         143.5954  143.0323  165.6450 N.ar    1  UNL1       -0.2046
     10 C         142.1022  142.9876  165.7800 C.ar    1  UNL1        0.1715
     11 C         141.4796  141.7011  169.2444 C.ar    1  UNL1        0.0870
     12 C         141.9193  140.7668  170.3324 C.ar    1  UNL1        0.0119
     13 C         142.5200  139.4377  169.9823 C.ar    1  UNL1        0.0017
     14 C         142.6811  139.0430  168.5442 C.ar    1  UNL1        0.0130
     15 C         142.2414  139.9773  167.4562 C.ar    1  UNL1        0.0760
     16 CL        142.4026  139.5824  166.0180 Cl      1  UNL1       -0.0807
     17 C         141.6407  141.3064  167.8062 C.ar    1  UNL1        0.1045
     18 N         140.2782  144.3593  169.9447 N.1     1  UNL1       -0.1908
     19 C         140.8789  143.0302  169.5945 C.1     1  UNL1        0.1020
     20 C         140.5153  144.8755  161.5996 C.3     1  UNL1        0.2722
     21 C         139.6670  143.6386  161.6261 C.2     1  UNL1        0.2701
     22 O         138.1715  143.7548  161.6269 O.2     1  UNL1       -0.2707
     23 N         140.3141  142.2857  161.6520 N.am    1  UNL1       -0.2663
     24 H         141.2957  142.2095  161.6515 H       1  UNL1        0.1564
     25 C         139.4659  141.0489  161.6785 C.ar    1  UNL1        0.1344
     26 C         139.4078  140.2057  162.9177 C.ar    1  UNL1        0.0368
     27 C         138.5595  138.9689  162.9443 C.ar    1  UNL1        0.0341
     28 C         137.7692  138.5753  161.7316 C.ar    1  UNL1        0.1593
     29 F         136.9209  137.3385  161.7581 F       1  UNL1       -0.2025
     30 C         137.8273  139.4185  160.4924 C.ar    1  UNL1        0.1298
     31 N         138.6756  140.6553  160.4658 N.ar    1  UNL1       -0.2267
     32 C         140.8665  145.5161  160.2895 C.3     1  UNL1        0.1952
     33 O         139.8966  145.4662  159.1464 O.3     1  UNL1       -0.3467
     34 C         140.0450  144.4197  158.0820 C.3     1  UNL1        0.1740
     35 C         141.1270  143.3866  158.1916 C.3     1  UNL1        0.1692
     36 O         140.7819  141.9762  158.5680 O.3     1  UNL1       -0.3794
     37 H         140.4466  141.9572  159.4779 H       1  UNL1        0.2105
@<TRIPOS>BOND
     1    18    19    3
     2    19    11    1
     3    11    12   ar
     4    12    13   ar
     5    13    14   ar
     6    14    15   ar
     7    15    16    1
     8    15    17   ar
     9    17     2    1
    10     2     3   ar
    11     3     4   ar
    12     4     5   ar
    13     5     6   ar
    14     6     1    1
    15     1    20    1
    16    20    32    1
    17    32    33    1
    18    33    34    1
    19    34    35    1
    20    35    36    1
    21    20    21    1
    22    21    22    2
    23    21    23   am
    24    23    25    1
    25    25    26   ar
    26    26    27   ar
    27    27    28   ar
    28    28    29    1
    29    28    30   ar
    30    30    31   ar
    31     6     7   ar
    32     7     8   ar
    33     8     9   ar
    34     9    10   ar
    35    17    11   ar
    36    10     2   ar
    37    10     5   ar
    38    31    25   ar
    39    36    37    1
    40    23    24    1
@<TRIPOS>MOLECULE
*****
 37 40 0 0 0
SMALL
GASTEIGER

@<TRIPOS>ATOM
      1 O         139.2255  138.0032  160.7846 O.3     1  UNL1       -0.4517
      2 N         139.2047  140.1437  165.3233 N.ar    1  UNL1       -0.2105
      3 N         138.0747  140.6552  164.4798 N.ar    1  UNL1       -0.1619
      4 C         138.1466  139.9733  163.1457 C.ar    1  UNL1        0.1283
      5 C         139.3210  139.0403  163.1648 C.ar    1  UNL1        0.1098
      6 C         139.8795  138.1085  162.1304 C.ar    1  UNL1        0.2312
      7 N         141.0918  137.2820  162.4419 N.ar    1  UNL1       -0.1892
      8 C         141.7457  137.3874  163.7878 C.ar    1  UNL1        0.2029
      9 N         141.1873  138.3192  164.8221 N.ar    1  UNL1       -0.2046
     10 C         139.9750  139.1457  164.5106 C.ar    1  UNL1        0.1715
     11 C         138.8547  139.8504  167.8809 C.ar    1  UNL1        0.0870
     12 C         139.1607  140.2643  169.2898 C.ar    1  UNL1        0.0119
     13 C         140.1227  141.3854  169.5501 C.ar    1  UNL1        0.0017
     14 C         140.7786  142.0926  168.4014 C.ar    1  UNL1        0.0130
     15 C         140.4726  141.6787  166.9925 C.ar    1  UNL1        0.0760
     16 CL        141.1287  142.3860  165.8438 Cl      1  UNL1       -0.0807
     17 C         139.5107  140.5576  166.7322 C.ar    1  UNL1        0.1045
     18 N         136.9307  137.6083  167.3606 N.1     1  UNL1       -0.1908
     19 C         137.8927  138.7293  167.6208 C.1     1  UNL1        0.1020
     20 C         139.5281  139.0180  159.7222 C.3     1  UNL1        0.2722
     21 C         139.3508  140.4796  160.0090 C.2     1  UNL1        0.2701
     22 O         138.0806  141.1727  159.6140 O.2     1  UNL1       -0.2707
     23 N         140.4437  141.2481  160.6908 N.am    1  UNL1       -0.2663
     24 H         141.2774  140.7932  160.9501 H       1  UNL1        0.1564
     25 C         140.2665  142.7097  160.9776 C.ar    1  UNL1        0.1344
     26 C         139.9188  143.1653  162.3638 C.ar    1  UNL1        0.0368
     27 C         139.7416  144.6269  162.6506 C.ar    1  UNL1        0.0341
     28 C         139.9119  145.6330  161.5511 C.ar    1  UNL1        0.1593
     29 F         139.7347  147.0946  161.8379 F       1  UNL1       -0.2025
     30 C         140.2596  145.1774  160.1649 C.ar    1  UNL1        0.1298
     31 N         140.4368  143.7157  159.8782 N.ar    1  UNL1       -0.2267
     32 C         140.0080  138.5712  158.3732 C.3     1  UNL1        0.1952
     33 O         139.0582  138.5371  157.2127 O.3     1  UNL1       -0.3467
     34 C         139.1031  139.6190  156.1747 C.3     1  UNL1        0.1740
     35 C         138.0341  140.6707  156.1409 C.3     1  UNL1        0.1692
     36 O         136.6096  140.3018  156.4314 O.3     1  UNL1       -0.3794
     37 H         136.2797  139.7126  155.7351 H       1  UNL1        0.2105
@<TRIPOS>BOND
     1    18    19    3
     2    19    11    1
     3    11    12   ar
     4    12    13   ar
     5    13    14   ar
     6    14    15   ar
     7    15    16    1
     8    15    17   ar
     9    17     2    1
    10     2     3   ar
    11     3     4   ar
    12     4     5   ar
    13     5     6   ar
    14     6     1    1
    15     1    20    1
    16    20    32    1
    17    32    33    1
    18    33    34    1
    19    34    35    1
    20    35    36    1
    21    20    21    1
    22    21    22    2
    23    21    23   am
    24    23    25    1
    25    25    26   ar
    26    26    27   ar
    27    27    28   ar
    28    28    29    1
    29    28    30   ar
    30    30    31   ar
    31     6     7   ar
    32     7     8   ar
    33     8     9   ar
    34     9    10   ar
    35    17    11   ar
    36    10     2   ar
    37    10     5   ar
    38    31    25   ar
    39    36    37    1
    40    23    24    1
@<TRIPOS>MOLECULE
*****
 37 40 0 0 0
SMALL
GASTEIGER

@<TRIPOS>ATOM
      1 O         141.5194  144.9151  160.9917 O.3     1  UNL1       -0.4517
      2 N         140.3890  141.6046  164.5897 N.ar    1  UNL1       -0.2105
      3 N         141.8063  141.4373  164.1279 N.ar    1  UNL1       -0.1619
      4 C         142.0686  142.4558  163.0583 C.ar    1  UNL1        0.1283
      5 C         140.8133  143.2525  162.8591 C.ar    1  UNL1        0.1098
      6 C         140.4814  144.3890  161.9382 C.ar    1  UNL1        0.2312
      7 N         139.1115  144.9995  161.9636 N.ar    1  UNL1       -0.1892
      8 C         138.0735  144.4734  162.9101 C.ar    1  UNL1        0.2029
      9 N         138.4054  143.3369  163.8310 N.ar    1  UNL1       -0.2046
     10 C         139.7753  142.7264  163.8055 C.ar    1  UNL1        0.1715
     11 C         138.6725  139.7751  165.2652 C.ar    1  UNL1        0.0870
     12 C         137.9889  138.9631  166.3251 C.ar    1  UNL1        0.0119
     13 C         138.3381  139.1686  167.7693 C.ar    1  UNL1        0.0017
     14 C         139.3711  140.1861  168.1536 C.ar    1  UNL1        0.0130
     15 C         140.0547  140.9981  167.0937 C.ar    1  UNL1        0.0760
     16 CL        141.0876  142.0156  167.4781 Cl      1  UNL1       -0.0807
     17 C         139.7054  140.7926  165.6495 C.ar    1  UNL1        0.1045
     18 N         137.9738  139.3640  162.3769 N.1     1  UNL1       -0.1908
     19 C         138.3231  139.5695  163.8211 C.1     1  UNL1        0.1020
     20 C         141.5760  144.4057  159.5820 C.3     1  UNL1        0.2722
     21 C         141.4110  145.3567  158.4337 C.2     1  UNL1        0.2701
     22 O         142.5505  146.2413  158.0228 O.2     1  UNL1       -0.2707
     23 N         140.1063  145.4229  157.6964 N.am    1  UNL1       -0.2663
     24 H         139.3584  144.8423  157.9661 H       1  UNL1        0.1564
     25 C         139.9413  146.3739  156.5481 C.ar    1  UNL1        0.1344
     26 C         140.6456  146.1117  155.2500 C.ar    1  UNL1        0.0368
     27 C         140.4805  147.0626  154.1018 C.ar    1  UNL1        0.0341
     28 C         139.6110  148.2758  154.2517 C.ar    1  UNL1        0.1593
     29 F         139.4460  149.2267  153.1034 F       1  UNL1       -0.2025
     30 C         138.9067  148.5379  155.5498 C.ar    1  UNL1        0.1298
     31 N         139.0719  147.5869  156.6981 N.ar    1  UNL1       -0.2267
     32 C         141.7976  142.9454  159.3205 C.3     1  UNL1        0.1952
     33 O         143.0145  142.2614  159.8694 O.3     1  UNL1       -0.3467
     34 C         143.2924  140.8296  159.5186 C.3     1  UNL1        0.1740
     35 C         143.4175  139.8022  160.6043 C.3     1  UNL1        0.1692
     36 O         144.5620  138.8328  160.5912 O.3     1  UNL1       -0.3794
     37 H         144.4810  138.2472  159.8221 H       1  UNL1        0.2105
@<TRIPOS>BOND
     1    18    19    3
     2    19    11    1
     3    11    12   ar
     4    12    13   ar
     5    13    14   ar
     6    14    15   ar
     7    15    16    1
     8    15    17   ar
     9    17     2    1
    10     2     3   ar
    11     3     4   ar
    12     4     5   ar
    13     5     6   ar
    14     6     1    1
    15     1    20    1
    16    20    32    1
    17    32    33    1
    18    33    34    1
    19    34    35    1
    20    35    36    1
    21    20    21    1
    22    21    22    2
    23    21    23   am
    24    23    25    1
    25    25    26   ar
    26    26    27   ar
    27    27    28   ar
    28    28    29    1
    29    28    30   ar
    30    30    31   ar
    31     6     7   ar
    32     7     8   ar
    33     8     9   ar
    34     9    10   ar
    35    17    11   ar
    36    10     2   ar
    37    10     5   ar
    38    31    25   ar
    39    36    37    1
    40    23    24    1
@<TRIPOS>MOLECULE
*****
 37 40 0 0 0
SMALL
GASTEIGER

@<TRIPOS>ATOM
      1 O         138.0872  139.0230  160.7616 O.3     1  UNL1       -0.4517
      2 N         139.5674  139.7716  165.4978 N.ar    1  UNL1       -0.2105
      3 N         140.0546  138.4499  164.9822 N.ar    1  UNL1       -0.1619
      4 C         139.5753  138.2985  163.5689 C.ar    1  UNL1        0.1283
      5 C         138.7919  139.5266  163.2111 C.ar    1  UNL1        0.1098
      6 C         138.0823  139.9335  161.9537 C.ar    1  UNL1        0.2312
      7 N         137.3679  141.2508  161.8884 N.ar    1  UNL1       -0.1892
      8 C         137.3630  142.1612  163.0805 C.ar    1  UNL1        0.2029
      9 N         138.0725  141.7543  164.3379 N.ar    1  UNL1       -0.2046
     10 C         138.7870  140.4370  164.4032 C.ar    1  UNL1        0.1715
     11 C         138.9930  139.8607  168.0300 C.ar    1  UNL1        0.0870
     12 C         139.2424  140.4190  169.3997 C.ar    1  UNL1        0.0119
     13 C         140.3155  141.4463  169.6070 C.ar    1  UNL1        0.0017
     14 C         141.1392  141.9155  168.4445 C.ar    1  UNL1        0.0130
     15 C         140.8898  141.3572  167.0748 C.ar    1  UNL1        0.0760
     16 CL        141.7136  141.8264  165.9123 Cl      1  UNL1       -0.0807
     17 C         139.8167  140.3298  166.8675 C.ar    1  UNL1        0.1045
     18 N         136.8468  137.8060  167.6156 N.1     1  UNL1       -0.1908
     19 C         137.9199  138.8334  167.8228 C.1     1  UNL1        0.1020
     20 C         139.0839  139.2343  159.6607 C.3     1  UNL1        0.2722
     21 C         138.6916  139.9972  158.4301 C.2     1  UNL1        0.2701
     22 O         138.8113  139.3552  157.0797 O.2     1  UNL1       -0.2707
     23 N         138.1797  141.4020  158.5500 N.am    1  UNL1       -0.2663
     24 H         138.1012  141.8234  159.4363 H       1  UNL1        0.1564
     25 C         137.7875  142.1649  157.3195 C.ar    1  UNL1        0.1344
     26 C         138.6204  143.3240  156.8584 C.ar    1  UNL1        0.0368
     27 C         138.2282  144.0869  155.6279 C.ar    1  UNL1        0.0341
     28 C         137.0029  143.6907  154.8585 C.ar    1  UNL1        0.1593
     29 F         136.6107  144.4536  153.6280 F       1  UNL1       -0.2025
     30 C         136.1700  142.5316  155.3196 C.ar    1  UNL1        0.1298
     31 N         136.5623  141.7687  156.5502 N.ar    1  UNL1       -0.2267
     32 C         140.4727  138.6827  159.7902 C.3     1  UNL1        0.1952
     33 O         141.4766  139.3758  160.6632 O.3     1  UNL1       -0.3467
     34 C         141.7885  140.8262  160.4416 C.3     1  UNL1        0.1740
     35 C         141.0849  141.8765  161.2489 C.3     1  UNL1        0.1692
     36 O         139.9094  142.6058  160.6691 O.3     1  UNL1       -0.3794
     37 H         140.2023  143.1467  159.9191 H       1  UNL1        0.2105
@<TRIPOS>BOND
     1    18    19    3
     2    19    11    1
     3    11    12   ar
     4    12    13   ar
     5    13    14   ar
     6    14    15   ar
     7    15    16    1
     8    15    17   ar
     9    17     2    1
    10     2     3   ar
    11     3     4   ar
    12     4     5   ar
    13     5     6   ar
    14     6     1    1
    15     1    20    1
    16    20    32    1
    17    32    33    1
    18    33    34    1
    19    34    35    1
    20    35    36    1
    21    20    21    1
    22    21    22    2
    23    21    23   am
    24    23    25    1
    25    25    26   ar
    26    26    27   ar
    27    27    28   ar
    28    28    29    1
    29    28    30   ar
    30    30    31   ar
    31     6     7   ar
    32     7     8   ar
    33     8     9   ar
    34     9    10   ar
    35    17    11   ar
    36    10     2   ar
    37    10     5   ar
    38    31    25   ar
    39    36    37    1
    40    23    24    1
@<TRIPOS>MOLECULE
*****
 37 40 0 0 0
SMALL
GASTEIGER

@<TRIPOS>ATOM
      1 O         143.4600  138.7649  160.4283 O.3     1  UNL1       -0.4517
      2 N         142.5731  140.3105  165.1195 N.ar    1  UNL1       -0.2105
      3 N         143.6891  141.0942  164.4946 N.ar    1  UNL1       -0.1619
      4 C         143.8946  140.5778  163.1013 C.ar    1  UNL1        0.1283
      5 C         142.9056  139.4749  162.8652 C.ar    1  UNL1        0.1098
      6 C         142.6432  138.5997  161.6756 C.ar    1  UNL1        0.2312
      7 N         141.5642  137.5594  161.7332 N.ar    1  UNL1       -0.1892
      8 C         140.7475  137.3943  162.9805 C.ar    1  UNL1        0.2029
      9 N         141.0099  138.2694  164.1701 N.ar    1  UNL1       -0.2046
     10 C         142.0889  139.3097  164.1125 C.ar    1  UNL1        0.1715
     11 C         142.4630  139.5682  167.6068 C.ar    1  UNL1        0.0870
     12 C         141.9256  139.7528  168.9950 C.ar    1  UNL1        0.0119
     13 C         140.9609  140.8644  169.2841 C.ar    1  UNL1        0.0017
     14 C         140.5335  141.7913  168.1850 C.ar    1  UNL1        0.0130
     15 C         141.0710  141.6067  166.7968 C.ar    1  UNL1        0.0760
     16 CL        140.6436  142.5337  165.6977 Cl      1  UNL1       -0.0807
     17 C         142.0357  140.4951  166.5077 C.ar    1  UNL1        0.1045
     18 N         144.3926  137.3449  167.0287 N.1     1  UNL1       -0.1908
     19 C         143.4278  138.4566  167.3178 C.1     1  UNL1        0.1020
     20 C         142.9713  139.6550  159.3242 C.3     1  UNL1        0.2722
     21 C         142.1286  140.8539  159.6448 C.2     1  UNL1        0.2701
     22 O         140.6567  140.8348  159.3565 O.2     1  UNL1       -0.2707
     23 N         142.7579  142.0718  160.2536 N.am    1  UNL1       -0.2663
     24 H         143.7240  142.0843  160.4428 H       1  UNL1        0.1564
     25 C         141.9153  143.2706  160.5742 C.ar    1  UNL1        0.1344
     26 C         141.4897  143.5317  161.9886 C.ar    1  UNL1        0.0368
     27 C         140.6471  144.7305  162.3092 C.ar    1  UNL1        0.0341
     28 C         140.2301  145.6684  161.2153 C.ar    1  UNL1        0.1593
     29 F         139.3875  146.8672  161.5358 F       1  UNL1       -0.2025
     30 C         140.6558  145.4074  159.8008 C.ar    1  UNL1        0.1298
     31 N         141.4984  144.2084  159.4803 N.ar    1  UNL1       -0.2267
     32 C         143.3252  139.3463  157.8997 C.3     1  UNL1        0.1952
     33 O         144.6297  139.8208  157.3312 O.3     1  UNL1       -0.3467
     34 C         144.7324  141.1925  156.7329 C.3     1  UNL1        0.1740
     35 C         145.0826  142.3650  157.6005 C.3     1  UNL1        0.1692
     36 O         144.0729  143.4477  157.8415 O.3     1  UNL1       -0.3794
     37 H         143.8903  143.9107  157.0090 H       1  UNL1        0.2105
@<TRIPOS>BOND
     1    18    19    3
     2    19    11    1
     3    11    12   ar
     4    12    13   ar
     5    13    14   ar
     6    14    15   ar
     7    15    16    1
     8    15    17   ar
     9    17     2    1
    10     2     3   ar
    11     3     4   ar
    12     4     5   ar
    13     5     6   ar
    14     6     1    1
    15     1    20    1
    16    20    32    1
    17    32    33    1
    18    33    34    1
    19    34    35    1
    20    35    36    1
    21    20    21    1
    22    21    22    2
    23    21    23   am
    24    23    25    1
    25    25    26   ar
    26    26    27   ar
    27    27    28   ar
    28    28    29    1
    29    28    30   ar
    30    30    31   ar
    31     6     7   ar
    32     7     8   ar
    33     8     9   ar
    34     9    10   ar
    35    17    11   ar
    36    10     2   ar
    37    10     5   ar
    38    31    25   ar
    39    36    37    1
    40    23    24    1
