@<TRIPOS>MOLECULE
*****
 31 34 0 0 0
SMALL
GASTEIGER

@<TRIPOS>ATOM
      1 C         140.1264  141.5239  163.9486 C.3     1  UNL1        0.1753
      2 C         139.6948  140.1253  163.6205 C.ar    1  UNL1        0.0089
      3 C         139.5416  139.4023  162.3153 C.ar    1  UNL1       -0.0021
      4 C         139.0815  137.9748  162.2982 C.ar    1  UNL1       -0.0003
      5 C         138.7745  137.2702  163.5863 C.ar    1  UNL1        0.0001
      6 C         138.9276  137.9932  164.8916 C.ar    1  UNL1        0.0043
      7 C         139.3878  139.4208  164.9087 C.ar    1  UNL1        0.0517
      8 C         139.6297  140.3839  166.0329 C.2     1  UNL1        0.2496
      9 O         139.4471  140.0975  167.4939 O.2     1  UNL1       -0.2699
     10 N         140.0862  141.6838  165.4395 N.am    1  UNL1       -0.2620
     11 N         139.4878  143.4738  162.3548 N.am    1  UNL1       -0.3059
     12 C         140.5278  142.5776  162.9594 C.2     1  UNL1        0.2448
     13 O         141.9689  142.7353  162.5748 O.2     1  UNL1       -0.2729
     14 H         138.5419  143.3704  162.6072 H       1  UNL1        0.1494
     15 C         139.7235  143.5412  160.2477 C.3     1  UNL1        0.0196
     16 C         139.8892  144.5276  161.3656 C.3     1  UNL1        0.0569
     17 C         140.0548  145.5139  162.4835 C.3     1  UNL1        0.0196
     18 C         140.2905  145.5813  160.3764 C.3     1  UNL1        0.0196
     19 C         140.4402  142.9254  166.2030 C.3     1  UNL1        0.1212
     20 C         141.1105  142.8178  167.5406 C.ar    1  UNL1       -0.0023
     21 C         140.3620  143.1886  168.7866 C.ar    1  UNL1       -0.0026
     22 C         141.0323  143.0810  170.1241 C.ar    1  UNL1       -0.0003
     23 C         142.4511  142.6027  170.2158 C.ar    1  UNL1       -0.0000
     24 C         143.1995  142.2320  168.9699 C.ar    1  UNL1       -0.0003
     25 C         142.5293  142.3395  167.6323 C.ar    1  UNL1       -0.0024
     26 C         143.2777  141.9688  166.3864 C.ar    1  UNL1       -0.0003
     27 C         143.2216  140.5622  165.8682 C.ar    1  UNL1       -0.0000
     28 C         143.9701  140.1915  164.6223 C.ar    1  UNL1       -0.0000
     29 C         144.7747  141.2273  163.8945 C.ar    1  UNL1       -0.0000
     30 C         144.8308  142.6339  164.4126 C.ar    1  UNL1       -0.0000
     31 C         144.0823  143.0046  165.6586 C.ar    1  UNL1       -0.0000
@<TRIPOS>BOND
     1    15    16    1
     2    16    17    1
     3    16    18    1
     4    16    11    1
     5    11    12   am
     6    12    13    2
     7    12     1    1
     8     1     2    1
     9     2     3   ar
    10     3     4   ar
    11     4     5   ar
    12     5     6   ar
    13     6     7   ar
    14     7     8    1
    15     8     9    2
    16     8    10   am
    17    10    19    1
    18    19    20    1
    19    20    21   ar
    20    21    22   ar
    21    22    23   ar
    22    23    24   ar
    23    24    25   ar
    24    25    26    1
    25    26    27   ar
    26    27    28   ar
    27    28    29   ar
    28    29    30   ar
    29    30    31   ar
    30    10     1    1
    31    25    20   ar
    32    31    26   ar
    33     7     2   ar
    34    11    14    1
@<TRIPOS>MOLECULE
*****
 31 34 0 0 0
SMALL
GASTEIGER

@<TRIPOS>ATOM
      1 C         141.7465  143.0868  163.5095 C.3     1  UNL1        0.1753
      2 C         141.6490  143.6715  162.1316 C.ar    1  UNL1        0.0089
      3 C         142.5535  143.5848  160.9382 C.ar    1  UNL1       -0.0021
      4 C         142.1868  144.2905  159.6664 C.ar    1  UNL1       -0.0003
      5 C         140.9156  145.0829  159.5881 C.ar    1  UNL1        0.0001
      6 C         140.0111  145.1696  160.7815 C.ar    1  UNL1        0.0043
      7 C         140.3778  144.4639  162.0533 C.ar    1  UNL1        0.0517
      8 C         139.6897  144.3689  163.3827 C.2     1  UNL1        0.2496
      9 O         138.3848  145.0121  163.7480 O.2     1  UNL1       -0.2699
     10 N         140.5356  143.5178  164.2828 N.am    1  UNL1       -0.2620
     11 N         142.8897  140.7606  163.6897 N.am    1  UNL1       -0.3059
     12 C         142.8595  142.2227  164.0239 C.2     1  UNL1        0.2448
     13 O         143.9424  142.8205  164.8723 O.2     1  UNL1       -0.2729
     14 H         142.1790  140.3682  163.1328 H       1  UNL1        0.1494
     15 C         144.8482  140.2854  163.0275 C.3     1  UNL1        0.0196
     16 C         144.0028  139.8965  164.2040 C.3     1  UNL1        0.0569
     17 C         143.1573  139.5078  165.3805 C.3     1  UNL1        0.0196
     18 C         145.1157  139.0325  164.7183 C.3     1  UNL1        0.0196
     19 C         140.2251  143.1604  165.7061 C.3     1  UNL1        0.1212
     20 C         139.6512  141.8137  166.0332 C.ar    1  UNL1       -0.0023
     21 C         138.7300  141.1352  165.0630 C.ar    1  UNL1       -0.0026
     22 C         138.1562  139.7885  165.3901 C.ar    1  UNL1       -0.0003
     23 C         138.5034  139.1203  166.6873 C.ar    1  UNL1       -0.0000
     24 C         139.4245  139.7987  167.6575 C.ar    1  UNL1       -0.0003
     25 C         139.9984  141.1455  167.3304 C.ar    1  UNL1       -0.0024
     26 C         140.9195  141.8239  168.3006 C.ar    1  UNL1       -0.0003
     27 C         140.3890  142.8775  169.2271 C.ar    1  UNL1       -0.0000
     28 C         141.3101  143.5559  170.1973 C.ar    1  UNL1       -0.0000
     29 C         142.7618  143.1807  170.2410 C.ar    1  UNL1       -0.0000
     30 C         143.2923  142.1271  169.3145 C.ar    1  UNL1       -0.0000
     31 C         142.3711  141.4487  168.3443 C.ar    1  UNL1       -0.0000
@<TRIPOS>BOND
     1    15    16    1
     2    16    17    1
     3    16    18    1
     4    16    11    1
     5    11    12   am
     6    12    13    2
     7    12     1    1
     8     1     2    1
     9     2     3   ar
    10     3     4   ar
    11     4     5   ar
    12     5     6   ar
    13     6     7   ar
    14     7     8    1
    15     8     9    2
    16     8    10   am
    17    10    19    1
    18    19    20    1
    19    20    21   ar
    20    21    22   ar
    21    22    23   ar
    22    23    24   ar
    23    24    25   ar
    24    25    26    1
    25    26    27   ar
    26    27    28   ar
    27    28    29   ar
    28    29    30   ar
    29    30    31   ar
    30    10     1    1
    31    25    20   ar
    32    31    26   ar
    33     7     2   ar
    34    11    14    1
@<TRIPOS>MOLECULE
*****
 31 34 0 0 0
SMALL
GASTEIGER

@<TRIPOS>ATOM
      1 C         141.2976  141.1894  166.4070 C.3     1  UNL1        0.1753
      2 C         141.7874  141.0215  167.8148 C.ar    1  UNL1        0.0089
      3 C         143.0528  141.4523  168.4954 C.ar    1  UNL1       -0.0021
      4 C         143.2695  141.1360  169.9455 C.ar    1  UNL1       -0.0003
      5 C         142.2208  140.3890  170.7151 C.ar    1  UNL1        0.0001
      6 C         140.9555  139.9582  170.0346 C.ar    1  UNL1        0.0043
      7 C         140.7388  140.2744  168.5844 C.ar    1  UNL1        0.0517
      8 C         139.6009  139.9807  167.6522 C.2     1  UNL1        0.2496
      9 O         138.3391  139.2498  168.0040 O.2     1  UNL1       -0.2699
     10 N         139.9463  140.5462  166.3065 N.am    1  UNL1       -0.2620
     11 N         142.1725  143.3728  165.3034 N.am    1  UNL1       -0.3059
     12 C         142.0306  141.8794  165.2949 C.2     1  UNL1        0.2448
     13 O         142.6216  141.0763  164.1745 O.2     1  UNL1       -0.2729
     14 H         141.7846  143.8999  166.0389 H       1  UNL1        0.1494
     15 C         141.6128  144.2446  163.4524 C.3     1  UNL1        0.0196
     16 C         142.9054  144.0628  164.1914 C.3     1  UNL1        0.0569
     17 C         144.1980  143.8809  164.9304 C.3     1  UNL1        0.0196
     18 C         143.6383  144.7528  163.0794 C.3     1  UNL1        0.0196
     19 C         139.0906  140.4800  165.0763 C.3     1  UNL1        0.1212
     20 C         138.6573  141.7442  164.3952 C.ar    1  UNL1       -0.0023
     21 C         138.3423  142.9645  165.2088 C.ar    1  UNL1       -0.0026
     22 C         137.9090  144.2287  164.5277 C.ar    1  UNL1       -0.0003
     23 C         137.7907  144.2728  163.0331 C.ar    1  UNL1       -0.0000
     24 C         138.1056  143.0527  162.2195 C.ar    1  UNL1       -0.0003
     25 C         138.5390  141.7883  162.9005 C.ar    1  UNL1       -0.0024
     26 C         138.8539  140.5682  162.0869 C.ar    1  UNL1       -0.0003
     27 C         140.1449  140.4858  161.3276 C.ar    1  UNL1       -0.0000
     28 C         140.4599  139.2656  160.5140 C.ar    1  UNL1       -0.0000
     29 C         139.4839  138.1278  160.4597 C.ar    1  UNL1       -0.0000
     30 C         138.1929  138.2103  161.2190 C.ar    1  UNL1       -0.0000
     31 C         137.8779  139.4305  162.0326 C.ar    1  UNL1       -0.0000
@<TRIPOS>BOND
     1    15    16    1
     2    16    17    1
     3    16    18    1
     4    16    11    1
     5    11    12   am
     6    12    13    2
     7    12     1    1
     8     1     2    1
     9     2     3   ar
    10     3     4   ar
    11     4     5   ar
    12     5     6   ar
    13     6     7   ar
    14     7     8    1
    15     8     9    2
    16     8    10   am
    17    10    19    1
    18    19    20    1
    19    20    21   ar
    20    21    22   ar
    21    22    23   ar
    22    23    24   ar
    23    24    25   ar
    24    25    26    1
    25    26    27   ar
    26    27    28   ar
    27    28    29   ar
    28    29    30   ar
    29    30    31   ar
    30    10     1    1
    31    25    20   ar
    32    31    26   ar
    33     7     2   ar
    34    11    14    1
@<TRIPOS>MOLECULE
*****
 31 34 0 0 0
SMALL
GASTEIGER

@<TRIPOS>ATOM
      1 C         141.1086  141.7833  166.5947 C.3     1  UNL1        0.1753
      2 C         141.0841  142.0971  168.0613 C.ar    1  UNL1        0.0089
      3 C         140.4718  143.2262  168.8360 C.ar    1  UNL1       -0.0021
      4 C         140.6146  143.2759  170.3283 C.ar    1  UNL1       -0.0003
      5 C         141.3696  142.1965  171.0459 C.ar    1  UNL1        0.0001
      6 C         141.9818  141.0674  170.2712 C.ar    1  UNL1        0.0043
      7 C         141.8391  141.0177  168.7789 C.ar    1  UNL1        0.0517
      8 C         142.3302  140.0369  167.7557 C.2     1  UNL1        0.2496
      9 O         143.1320  138.8000  168.0337 O.2     1  UNL1       -0.2699
     10 N         141.8787  140.5100  166.4058 N.am    1  UNL1       -0.2620
     11 N         138.9931  142.5263  165.2820 N.am    1  UNL1       -0.3059
     12 C         140.4743  142.5996  165.5077 C.2     1  UNL1        0.2448
     13 O         141.3210  143.4890  164.6465 O.2     1  UNL1       -0.2729
     14 H         138.4373  141.9425  165.8472 H       1  UNL1        0.1494
     15 C         138.3063  144.5264  165.1148 C.3     1  UNL1        0.0196
     16 C         138.3588  143.3426  164.1951 C.3     1  UNL1        0.0569
     17 C         138.4114  142.1587  163.2754 C.3     1  UNL1        0.0196
     18 C         137.7246  144.1588  163.1082 C.3     1  UNL1        0.0196
     19 C         142.1498  139.8294  165.0969 C.3     1  UNL1        0.1212
     20 C         141.0425  139.1166  164.3787 C.ar    1  UNL1       -0.0023
     21 C         140.0324  138.3250  165.1553 C.ar    1  UNL1       -0.0026
     22 C         138.9251  137.6122  164.4372 C.ar    1  UNL1       -0.0003
     23 C         138.8279  137.6910  162.9424 C.ar    1  UNL1       -0.0000
     24 C         139.8379  138.4825  162.1658 C.ar    1  UNL1       -0.0003
     25 C         140.9453  139.1954  162.8839 C.ar    1  UNL1       -0.0024
     26 C         141.9553  139.9870  162.1073 C.ar    1  UNL1       -0.0003
     27 C         141.6967  141.4309  161.7942 C.ar    1  UNL1       -0.0000
     28 C         142.7068  142.2225  161.0175 C.ar    1  UNL1       -0.0000
     29 C         143.9755  141.5701  160.5540 C.ar    1  UNL1       -0.0000
     30 C         144.2341  140.1261  160.8672 C.ar    1  UNL1       -0.0000
     31 C         143.2240  139.3345  161.6439 C.ar    1  UNL1       -0.0000
@<TRIPOS>BOND
     1    15    16    1
     2    16    17    1
     3    16    18    1
     4    16    11    1
     5    11    12   am
     6    12    13    2
     7    12     1    1
     8     1     2    1
     9     2     3   ar
    10     3     4   ar
    11     4     5   ar
    12     5     6   ar
    13     6     7   ar
    14     7     8    1
    15     8     9    2
    16     8    10   am
    17    10    19    1
    18    19    20    1
    19    20    21   ar
    20    21    22   ar
    21    22    23   ar
    22    23    24   ar
    23    24    25   ar
    24    25    26    1
    25    26    27   ar
    26    27    28   ar
    27    28    29   ar
    28    29    30   ar
    29    30    31   ar
    30    10     1    1
    31    25    20   ar
    32    31    26   ar
    33     7     2   ar
    34    11    14    1
@<TRIPOS>MOLECULE
*****
 31 34 0 0 0
SMALL
GASTEIGER

@<TRIPOS>ATOM
      1 C         141.0184  142.0744  165.5050 C.3     1  UNL1        0.1753
      2 C         142.0292  143.0395  164.9601 C.ar    1  UNL1        0.0089
      3 C         143.4721  143.2768  165.2941 C.ar    1  UNL1       -0.0021
      4 C         144.2462  144.3351  164.5656 C.ar    1  UNL1       -0.0003
      5 C         143.5774  145.1560  163.5031 C.ar    1  UNL1        0.0001
      6 C         142.1345  144.9187  163.1692 C.ar    1  UNL1        0.0043
      7 C         141.3604  143.8604  163.8977 C.ar    1  UNL1        0.0517
      8 C         139.9363  143.4027  163.7860 C.2     1  UNL1        0.2496
      9 O         138.9047  143.9523  162.8459 O.2     1  UNL1       -0.2699
     10 N         139.7249  142.2988  164.7794 N.am    1  UNL1       -0.2620
     11 N         141.1467  141.4633  168.0270 N.am    1  UNL1       -0.3059
     12 C         141.2589  141.0625  166.5858 C.2     1  UNL1        0.2448
     13 O         141.6116  139.6498  166.2257 O.2     1  UNL1       -0.2729
     14 H         140.9153  142.3905  168.2635 H       1  UNL1        0.1494
     15 C         139.9173  140.1572  169.1594 C.3     1  UNL1        0.0196
     16 C         141.3873  140.4514  169.1078 C.3     1  UNL1        0.0569
     17 C         142.8572  140.7456  169.0562 C.3     1  UNL1        0.0196
     18 C         141.6278  139.4395  170.1886 C.3     1  UNL1        0.0196
     19 C         138.4449  141.5508  165.0072 C.3     1  UNL1        0.1212
     20 C         138.4569  140.0535  165.0966 C.ar    1  UNL1       -0.0023
     21 C         137.9737  139.3727  166.3429 C.ar    1  UNL1       -0.0026
     22 C         137.9857  137.8755  166.4323 C.ar    1  UNL1       -0.0003
     23 C         138.4809  137.0589  165.2755 C.ar    1  UNL1       -0.0000
     24 C         138.9640  137.7397  164.0293 C.ar    1  UNL1       -0.0003
     25 C         138.9520  139.2370  163.9398 C.ar    1  UNL1       -0.0024
     26 C         139.4351  139.9178  162.6936 C.ar    1  UNL1       -0.0003
     27 C         138.4469  140.4642  161.7062 C.ar    1  UNL1       -0.0000
     28 C         138.9300  141.1449  160.4600 C.ar    1  UNL1       -0.0000
     29 C         140.4015  141.2793  160.2011 C.ar    1  UNL1       -0.0000
     30 C         141.3897  140.7329  161.1884 C.ar    1  UNL1       -0.0000
     31 C         140.9065  140.0521  162.4347 C.ar    1  UNL1       -0.0000
@<TRIPOS>BOND
     1    15    16    1
     2    16    17    1
     3    16    18    1
     4    16    11    1
     5    11    12   am
     6    12    13    2
     7    12     1    1
     8     1     2    1
     9     2     3   ar
    10     3     4   ar
    11     4     5   ar
    12     5     6   ar
    13     6     7   ar
    14     7     8    1
    15     8     9    2
    16     8    10   am
    17    10    19    1
    18    19    20    1
    19    20    21   ar
    20    21    22   ar
    21    22    23   ar
    22    23    24   ar
    23    24    25   ar
    24    25    26    1
    25    26    27   ar
    26    27    28   ar
    27    28    29   ar
    28    29    30   ar
    29    30    31   ar
    30    10     1    1
    31    25    20   ar
    32    31    26   ar
    33     7     2   ar
    34    11    14    1
@<TRIPOS>MOLECULE
*****
 31 34 0 0 0
SMALL
GASTEIGER

@<TRIPOS>ATOM
      1 C         141.4724  142.2670  163.9018 C.3     1  UNL1        0.1753
      2 C         140.1116  142.8236  163.6046 C.ar    1  UNL1        0.0089
      3 C         139.3387  142.9560  162.3259 C.ar    1  UNL1       -0.0021
      4 C         137.9691  143.5675  162.3373 C.ar    1  UNL1       -0.0003
      5 C         137.3724  144.0467  163.6274 C.ar    1  UNL1        0.0001
      6 C         138.1453  143.9143  164.9061 C.ar    1  UNL1        0.0043
      7 C         139.5149  143.3028  164.8947 C.ar    1  UNL1        0.0517
      8 C         140.5070  143.0423  165.9892 C.2     1  UNL1        0.2496
      9 O         140.3217  143.3653  167.4422 O.2     1  UNL1       -0.2699
     10 N         141.7168  142.4022  165.3756 N.am    1  UNL1       -0.2620
     11 N         142.2390  140.2647  162.4344 N.am    1  UNL1       -0.3059
     12 C         142.4221  141.6786  162.9009 C.2     1  UNL1        0.2448
     13 O         143.5549  142.5038  162.3665 O.2     1  UNL1       -0.2729
     14 H         141.4955  139.7230  162.7851 H       1  UNL1        0.1494
     15 C         142.2493  140.0467  160.3244 C.3     1  UNL1        0.0196
     16 C         143.1888  139.6762  161.4335 C.3     1  UNL1        0.0569
     17 C         144.1282  139.3058  162.5427 C.3     1  UNL1        0.0196
     18 C         144.1384  139.0878  160.4327 C.3     1  UNL1        0.0196
     19 C         142.9538  141.9727  166.1072 C.3     1  UNL1        0.1212
     20 C         142.8542  141.4651  167.5152 C.ar    1  UNL1       -0.0023
     21 C         143.4588  142.2514  168.6405 C.ar    1  UNL1       -0.0026
     22 C         143.3592  141.7438  170.0485 C.ar    1  UNL1       -0.0003
     23 C         142.6551  140.4499  170.3312 C.ar    1  UNL1       -0.0000
     24 C         142.0506  139.6635  169.2060 C.ar    1  UNL1       -0.0003
     25 C         142.1501  140.1711  167.7979 C.ar    1  UNL1       -0.0024
     26 C         141.5456  139.3848  166.6727 C.ar    1  UNL1       -0.0003
     27 C         140.0823  139.5134  166.3691 C.ar    1  UNL1       -0.0000
     28 C         139.4778  138.7271  165.2439 C.ar    1  UNL1       -0.0000
     29 C         140.3366  137.8120  164.4222 C.ar    1  UNL1       -0.0000
     30 C         141.7999  137.6834  164.7257 C.ar    1  UNL1       -0.0000
     31 C         142.4044  138.4698  165.8510 C.ar    1  UNL1       -0.0000
@<TRIPOS>BOND
     1    15    16    1
     2    16    17    1
     3    16    18    1
     4    16    11    1
     5    11    12   am
     6    12    13    2
     7    12     1    1
     8     1     2    1
     9     2     3   ar
    10     3     4   ar
    11     4     5   ar
    12     5     6   ar
    13     6     7   ar
    14     7     8    1
    15     8     9    2
    16     8    10   am
    17    10    19    1
    18    19    20    1
    19    20    21   ar
    20    21    22   ar
    21    22    23   ar
    22    23    24   ar
    23    24    25   ar
    24    25    26    1
    25    26    27   ar
    26    27    28   ar
    27    28    29   ar
    28    29    30   ar
    29    30    31   ar
    30    10     1    1
    31    25    20   ar
    32    31    26   ar
    33     7     2   ar
    34    11    14    1
@<TRIPOS>MOLECULE
*****
 31 34 0 0 0
SMALL
GASTEIGER

@<TRIPOS>ATOM
      1 C         141.9398  141.2690  164.3439 C.3     1  UNL1        0.1753
      2 C         142.2163  141.2764  165.8182 C.ar    1  UNL1        0.0089
      3 C         142.3938  142.3961  166.8004 C.ar    1  UNL1       -0.0021
      4 C         142.6664  142.0915  168.2436 C.ar    1  UNL1       -0.0003
      5 C         142.7614  140.6673  168.7046 C.ar    1  UNL1        0.0001
      6 C         142.5839  139.5476  167.7224 C.ar    1  UNL1        0.0043
      7 C         142.3113  139.8522  166.2792 C.ar    1  UNL1        0.0517
      8 C         142.0935  138.9646  165.0898 C.2     1  UNL1        0.2496
      9 O         142.1036  137.4646  165.0955 O.2     1  UNL1       -0.2699
     10 N         141.8639  139.8401  163.8937 N.am    1  UNL1       -0.2620
     11 N         140.6711  143.4595  163.7586 N.am    1  UNL1       -0.3059
     12 C         141.7691  142.4781  163.4728 C.2     1  UNL1        0.2448
     13 O         142.6962  142.7060  162.3160 O.2     1  UNL1       -0.2729
     14 H         140.0626  143.3100  164.5179 H       1  UNL1        0.1494
     15 C         141.5598  145.3837  163.6726 C.3     1  UNL1        0.0196
     16 C         140.5005  144.6686  162.8874 C.3     1  UNL1        0.0569
     17 C         139.4412  143.9534  162.1023 C.3     1  UNL1        0.0196
     18 C         140.3298  145.8777  162.0164 C.3     1  UNL1        0.0196
     19 C         141.6040  139.3696  162.4934 C.3     1  UNL1        0.1212
     20 C         140.4740  139.9582  161.7019 C.ar    1  UNL1       -0.0023
     21 C         140.7351  140.5527  160.3497 C.ar    1  UNL1       -0.0026
     22 C         139.6051  141.1413  159.5582 C.ar    1  UNL1       -0.0003
     23 C         138.2138  141.1355  160.1189 C.ar    1  UNL1       -0.0000
     24 C         137.9526  140.5410  161.4710 C.ar    1  UNL1       -0.0003
     25 C         139.0827  139.9524  162.2626 C.ar    1  UNL1       -0.0024
     26 C         138.8215  139.3579  163.6147 C.ar    1  UNL1       -0.0003
     27 C         138.5130  140.2510  164.7798 C.ar    1  UNL1       -0.0000
     28 C         138.2518  139.6565  166.1319 C.ar    1  UNL1       -0.0000
     29 C         138.2991  138.1689  166.3191 C.ar    1  UNL1       -0.0000
     30 C         138.6076  137.2759  165.1541 C.ar    1  UNL1       -0.0000
     31 C         138.8688  137.8704  163.8019 C.ar    1  UNL1       -0.0000
@<TRIPOS>BOND
     1    15    16    1
     2    16    17    1
     3    16    18    1
     4    16    11    1
     5    11    12   am
     6    12    13    2
     7    12     1    1
     8     1     2    1
     9     2     3   ar
    10     3     4   ar
    11     4     5   ar
    12     5     6   ar
    13     6     7   ar
    14     7     8    1
    15     8     9    2
    16     8    10   am
    17    10    19    1
    18    19    20    1
    19    20    21   ar
    20    21    22   ar
    21    22    23   ar
    22    23    24   ar
    23    24    25   ar
    24    25    26    1
    25    26    27   ar
    26    27    28   ar
    27    28    29   ar
    28    29    30   ar
    29    30    31   ar
    30    10     1    1
    31    25    20   ar
    32    31    26   ar
    33     7     2   ar
    34    11    14    1
@<TRIPOS>MOLECULE
*****
 31 34 0 0 0
SMALL
GASTEIGER

@<TRIPOS>ATOM
      1 C         141.3890  140.0233  164.8682 C.3     1  UNL1        0.1753
      2 C         140.2185  139.2204  165.3534 C.ar    1  UNL1        0.0089
      3 C         139.6393  137.9141  164.8974 C.ar    1  UNL1       -0.0021
      4 C         138.4374  137.3440  165.5904 C.ar    1  UNL1       -0.0003
      5 C         137.8146  138.0802  166.7393 C.ar    1  UNL1        0.0001
      6 C         138.3938  139.3866  167.1953 C.ar    1  UNL1        0.0043
      7 C         139.5958  139.9567  166.5023 C.ar    1  UNL1        0.0517
      8 C         140.3814  141.2145  166.7272 C.2     1  UNL1        0.2496
      9 O         140.1069  142.2495  167.7777 O.2     1  UNL1       -0.2699
     10 N         141.4897  141.2557  165.7173 N.am    1  UNL1       -0.2620
     11 N         141.7434  139.4928  162.3496 N.am    1  UNL1       -0.3059
     12 C         142.2990  139.6579  163.7331 C.2     1  UNL1        0.2448
     13 O         143.7646  139.4574  163.9815 O.2     1  UNL1       -0.2729
     14 H         140.7814  139.6244  162.1865 H       1  UNL1        0.1494
     15 C         142.7944  140.5782  160.8606 C.3     1  UNL1        0.0196
     16 C         142.6534  139.1274  161.2145 C.3     1  UNL1        0.0569
     17 C         142.5124  137.6766  161.5686 C.3     1  UNL1        0.0196
     18 C         143.5634  138.7620  160.0796 C.3     1  UNL1        0.0196
     19 C         142.5180  142.3391  165.5804 C.3     1  UNL1        0.1212
     20 C         142.8662  142.8757  164.2237 C.ar    1  UNL1       -0.0023
     21 C         144.2796  142.7996  163.7271 C.ar    1  UNL1       -0.0026
     22 C         144.6277  143.3362  162.3703 C.ar    1  UNL1       -0.0003
     23 C         143.5625  143.9489  161.5101 C.ar    1  UNL1       -0.0000
     24 C         142.1492  144.0250  162.0067 C.ar    1  UNL1       -0.0003
     25 C         141.8010  143.4884  163.3635 C.ar    1  UNL1       -0.0024
     26 C         140.3876  143.5645  163.8601 C.ar    1  UNL1       -0.0003
     27 C         139.3777  142.5525  163.4063 C.ar    1  UNL1       -0.0000
     28 C         137.9644  142.6286  163.9029 C.ar    1  UNL1       -0.0000
     29 C         137.5609  143.7168  164.8532 C.ar    1  UNL1       -0.0000
     30 C         138.5708  144.7288  165.3070 C.ar    1  UNL1       -0.0000
     31 C         139.9842  144.6527  164.8104 C.ar    1  UNL1       -0.0000
@<TRIPOS>BOND
     1    15    16    1
     2    16    17    1
     3    16    18    1
     4    16    11    1
     5    11    12   am
     6    12    13    2
     7    12     1    1
     8     1     2    1
     9     2     3   ar
    10     3     4   ar
    11     4     5   ar
    12     5     6   ar
    13     6     7   ar
    14     7     8    1
    15     8     9    2
    16     8    10   am
    17    10    19    1
    18    19    20    1
    19    20    21   ar
    20    21    22   ar
    21    22    23   ar
    22    23    24   ar
    23    24    25   ar
    24    25    26    1
    25    26    27   ar
    26    27    28   ar
    27    28    29   ar
    28    29    30   ar
    29    30    31   ar
    30    10     1    1
    31    25    20   ar
    32    31    26   ar
    33     7     2   ar
    34    11    14    1
@<TRIPOS>MOLECULE
*****
 31 34 0 0 0
SMALL
GASTEIGER

@<TRIPOS>ATOM
      1 C         140.6502  141.5448  162.7154 C.3     1  UNL1        0.1753
      2 C         140.5317  142.9897  162.3301 C.ar    1  UNL1        0.0089
      3 C         140.7392  143.7009  161.0259 C.ar    1  UNL1       -0.0021
      4 C         140.5431  145.1856  160.9419 C.ar    1  UNL1       -0.0003
      5 C         140.1395  145.9591  162.1621 C.ar    1  UNL1        0.0001
      6 C         139.9320  145.2478  163.4663 C.ar    1  UNL1        0.0043
      7 C         140.1281  143.7631  163.5503 C.ar    1  UNL1        0.0517
      8 C         139.9972  142.7963  164.6897 C.2     1  UNL1        0.2496
      9 O         139.6113  143.1401  166.0978 O.2     1  UNL1       -0.2699
     10 N         140.3198  141.4253  164.1737 N.am    1  UNL1       -0.2620
     11 N         142.3501  139.7233  161.9787 N.am    1  UNL1       -0.3059
     12 C         141.0320  140.4174  161.8026 C.2     1  UNL1        0.2448
     13 O         140.0959  139.9841  160.7137 O.2     1  UNL1       -0.2729
     14 H         142.9646  140.0078  162.6934 H       1  UNL1        0.1494
     15 C         143.4544  139.5623  160.1746 C.3     1  UNL1        0.0196
     16 C         142.7320  138.5959  161.0659 C.3     1  UNL1        0.0569
     17 C         142.0096  137.6296  161.9572 C.3     1  UNL1        0.0196
     18 C         143.1138  137.4686  160.1531 C.3     1  UNL1        0.0196
     19 C         140.3132  140.1574  164.9752 C.3     1  UNL1        0.1212
     20 C         140.6594  140.1907  166.4343 C.ar    1  UNL1       -0.0023
     21 C         139.5784  140.0513  167.4649 C.ar    1  UNL1       -0.0026
     22 C         139.9246  140.0846  168.9240 C.ar    1  UNL1       -0.0003
     23 C         141.3516  140.2573  169.3526 C.ar    1  UNL1       -0.0000
     24 C         142.4325  140.3968  168.3220 C.ar    1  UNL1       -0.0003
     25 C         142.0864  140.3635  166.8628 C.ar    1  UNL1       -0.0024
     26 C         143.1674  140.5029  165.8323 C.ar    1  UNL1       -0.0003
     27 C         143.8399  139.2808  165.2807 C.ar    1  UNL1       -0.0000
     28 C         144.9208  139.4202  164.2501 C.ar    1  UNL1       -0.0000
     29 C         145.3293  140.7818  163.7711 C.ar    1  UNL1       -0.0000
     30 C         144.6568  142.0039  164.3227 C.ar    1  UNL1       -0.0000
     31 C         143.5758  141.8644  165.3533 C.ar    1  UNL1       -0.0000
@<TRIPOS>BOND
     1    15    16    1
     2    16    17    1
     3    16    18    1
     4    16    11    1
     5    11    12   am
     6    12    13    2
     7    12     1    1
     8     1     2    1
     9     2     3   ar
    10     3     4   ar
    11     4     5   ar
    12     5     6   ar
    13     6     7   ar
    14     7     8    1
    15     8     9    2
    16     8    10   am
    17    10    19    1
    18    19    20    1
    19    20    21   ar
    20    21    22   ar
    21    22    23   ar
    22    23    24   ar
    23    24    25   ar
    24    25    26    1
    25    26    27   ar
    26    27    28   ar
    27    28    29   ar
    28    29    30   ar
    29    30    31   ar
    30    10     1    1
    31    25    20   ar
    32    31    26   ar
    33     7     2   ar
    34    11    14    1
