@<TRIPOS>MOLECULE
*****
 36 38 0 0 0
SMALL
GASTEIGER

@<TRIPOS>ATOM
      1 C         138.7410  141.2292  164.5631 C.3     1  UNL1        0.0800
      2 C         138.3398  139.9777  165.2861 C.3     1  UNL1        0.0372
      3 C         138.8028  139.7435  166.6935 C.3     1  UNL1        0.0738
      4 N         139.6670  140.7607  167.3778 N.3     1  UNL1       -0.2738
      5 C         140.0682  142.0122  166.6548 C.3     1  UNL1        0.0738
      6 C         139.6052  142.2464  165.2475 C.3     1  UNL1        0.0372
      7 N         137.8707  140.5838  160.7452 N.am    1  UNL1       -0.1773
      8 C         138.3337  140.3496  162.1526 C.2     1  UNL1        0.3266
      9 O         138.8524  139.0014  162.5570 O.2     1  UNL1       -0.2504
     10 N         138.2780  141.4635  163.1557 N.am    1  UNL1       -0.2600
     11 H         137.5303  141.4686  160.4799 H       1  UNL1        0.1841
     12 C         139.2227  139.1331  159.0666 C.3     1  UNL1        0.2056
     13 O         137.9264  139.4699  159.7422 O.3     1  UNL1       -0.2624
     14 C         137.7593  142.8116  162.7514 C.3     1  UNL1        0.1222
     15 C         138.7024  143.8490  162.2181 C.ar    1  UNL1        0.0047
     16 C         139.5651  143.7126  160.9987 C.ar    1  UNL1        0.0049
     17 C         140.3443  144.9843  160.8375 C.ar    1  UNL1        0.0352
     18 S         139.9630  145.9066  161.9575 S.2     1  UNL1       -0.0862
     19 C         138.9483  145.2049  162.8107 C.ar    1  UNL1        0.0328
     20 C         140.1300  140.5265  168.7853 C.3     1  UNL1        0.0592
     21 C         139.1260  140.3516  169.8858 C.3     1  UNL1        0.0174
     22 C         141.5971  140.4670  169.0921 C.3     1  UNL1        0.0372
     23 C         142.4944  139.5680  168.2942 C.3     1  UNL1        0.0911
     24 N         142.4213  139.5734  166.7960 N.am    1  UNL1       -0.3008
     25 C         143.2975  138.6529  165.9990 C.2     1  UNL1        0.2479
     26 O         144.2467  137.7271  166.7003 O.2     1  UNL1       -0.2701
     27 H         141.7984  140.1812  166.3357 H       1  UNL1        0.1497
     28 C         143.2245  138.6584  164.5008 C.ar    1  UNL1        0.0779
     29 C         142.1344  137.9029  163.8003 C.ar    1  UNL1       -0.0128
     30 C         141.1172  137.1420  164.5980 C.3     1  UNL1        0.0313
     31 C         142.0613  137.9084  162.3021 C.ar    1  UNL1        0.0268
     32 C         143.0785  138.6693  161.5044 C.ar    1  UNL1        0.1390
     33 CL        143.0054  138.6748  160.0062 Cl      1  UNL1       -0.0613
     34 N         144.1687  139.4249  162.2049 N.ar    1  UNL1       -0.2224
     35 C         144.2417  139.4194  163.7031 C.ar    1  UNL1        0.1433
     36 CL        145.3319  140.1749  164.4036 Cl      1  UNL1       -0.0612
@<TRIPOS>BOND
     1    12    13    1
     2    13     7    1
     3     7     8   am
     4     8     9    2
     5     8    10   am
     6    10    14    1
     7    14    15    1
     8    15    16   ar
     9    16    17   ar
    10    17    18   ar
    11    18    19   ar
    12    10     1    1
    13     1     2    1
    14     2     3    1
    15     3     4    1
    16     4    20    1
    17    20    21    1
    18    20    22    1
    19    22    23    1
    20    23    24    1
    21    24    25   am
    22    25    26    2
    23    25    28    1
    24    28    29   ar
    25    29    30    1
    26    29    31   ar
    27    31    32   ar
    28    32    33    1
    29    32    34   ar
    30    34    35   ar
    31    35    36    1
    32     4     5    1
    33     5     6    1
    34    19    15   ar
    35     6     1    1
    36    35    28   ar
    37     7    11    1
    38    24    27    1
@<TRIPOS>MOLECULE
*****
 36 38 0 0 0
SMALL
GASTEIGER

@<TRIPOS>ATOM
      1 C         139.0805  141.9938  165.0453 C.3     1  UNL1        0.0800
      2 C         138.7405  140.6064  165.5027 C.3     1  UNL1        0.0372
      3 C         139.2033  140.1250  166.8458 C.3     1  UNL1        0.0738
      4 N         140.0061  141.0311  167.7316 N.3     1  UNL1       -0.2738
      5 C         140.3461  142.4186  167.2742 C.3     1  UNL1        0.0738
      6 C         139.8833  142.8999  165.9311 C.3     1  UNL1        0.0372
      7 N         138.7266  144.2148  161.7755 N.am    1  UNL1       -0.1773
      8 C         139.1893  143.7333  163.1186 C.2     1  UNL1        0.3266
      9 O         140.2238  144.5099  163.8782 O.2     1  UNL1       -0.2504
     10 N         138.6177  142.4753  163.7021 N.am    1  UNL1       -0.2600
     11 H         138.0477  143.7051  161.2769 H       1  UNL1        0.1841
     12 C         140.5485  145.4154  160.3650 C.3     1  UNL1        0.2056
     13 O         139.2982  145.4729  161.1919 O.3     1  UNL1       -0.2624
     14 C         137.5833  141.6987  162.9426 C.3     1  UNL1        0.1222
     15 C         138.0059  140.6301  161.9785 C.ar    1  UNL1        0.0047
     16 C         138.0776  139.1600  162.2677 C.ar    1  UNL1        0.0049
     17 C         138.5470  138.4652  161.0238 C.ar    1  UNL1        0.0352
     18 S         138.7655  139.5061  159.9660 S.2     1  UNL1       -0.0862
     19 C         138.4311  140.8440  160.5560 C.ar    1  UNL1        0.0328
     20 C         140.4689  140.5496  169.0748 C.3     1  UNL1        0.0592
     21 C         139.4709  140.2968  170.1656 C.3     1  UNL1        0.0174
     22 C         141.9297  140.3210  169.3271 C.3     1  UNL1        0.0372
     23 C         142.7083  139.3958  168.4395 C.3     1  UNL1        0.0911
     24 N         142.5416  139.4679  166.9506 N.am    1  UNL1       -0.3008
     25 C         143.3827  138.6032  166.0590 C.2     1  UNL1        0.2479
     26 O         144.3905  137.6665  166.6563 O.2     1  UNL1       -0.2701
     27 H         141.8801  140.0827  166.5585 H       1  UNL1        0.1497
     28 C         143.2160  138.6753  164.5700 C.ar    1  UNL1        0.0779
     29 C         142.0640  137.9776  163.9097 C.ar    1  UNL1       -0.0128
     30 C         141.0787  137.2079  164.7383 C.3     1  UNL1        0.0313
     31 C         141.8973  138.0497  162.4207 C.ar    1  UNL1        0.0268
     32 C         142.8825  138.8195  161.5921 C.ar    1  UNL1        0.1390
     33 CL        142.7158  138.8915  160.1031 Cl      1  UNL1       -0.0613
     34 N         144.0346  139.5172  162.2524 N.ar    1  UNL1       -0.2224
     35 C         144.2014  139.4451  163.7414 C.ar    1  UNL1        0.1433
     36 CL        145.3534  140.1428  164.4017 Cl      1  UNL1       -0.0612
@<TRIPOS>BOND
     1    12    13    1
     2    13     7    1
     3     7     8   am
     4     8     9    2
     5     8    10   am
     6    10    14    1
     7    14    15    1
     8    15    16   ar
     9    16    17   ar
    10    17    18   ar
    11    18    19   ar
    12    10     1    1
    13     1     2    1
    14     2     3    1
    15     3     4    1
    16     4    20    1
    17    20    21    1
    18    20    22    1
    19    22    23    1
    20    23    24    1
    21    24    25   am
    22    25    26    2
    23    25    28    1
    24    28    29   ar
    25    29    30    1
    26    29    31   ar
    27    31    32   ar
    28    32    33    1
    29    32    34   ar
    30    34    35   ar
    31    35    36    1
    32     4     5    1
    33     5     6    1
    34    19    15   ar
    35     6     1    1
    36    35    28   ar
    37     7    11    1
    38    24    27    1
@<TRIPOS>MOLECULE
*****
 36 38 0 0 0
SMALL
GASTEIGER

@<TRIPOS>ATOM
      1 C         142.2726  142.9020  164.2295 C.3     1  UNL1        0.0800
      2 C         143.2037  142.5329  165.3461 C.3     1  UNL1        0.0372
      3 C         142.6681  142.3262  166.7318 C.3     1  UNL1        0.0738
      4 N         141.2014  142.4886  167.0010 N.3     1  UNL1       -0.2738
      5 C         140.2703  142.8576  165.8845 C.3     1  UNL1        0.0738
      6 C         140.8059  143.0643  164.4987 C.3     1  UNL1        0.0372
      7 N         142.6602  144.2703  160.5244 N.am    1  UNL1       -0.1773
      8 C         142.1247  144.0635  161.9102 C.2     1  UNL1        0.3266
      9 O         140.9058  144.8116  162.3626 O.2     1  UNL1       -0.2504
     10 N         142.8081  143.1087  162.8437 N.am    1  UNL1       -0.2600
     11 H         143.4602  143.7793  160.2275 H       1  UNL1        0.1841
     12 C         140.7551  144.7912  158.8364 C.3     1  UNL1        0.2056
     13 O         141.9768  145.2251  159.5910 O.3     1  UNL1       -0.2624
     14 C         144.0270  142.3607  162.3913 C.3     1  UNL1        0.1222
     15 C         143.9187  140.9165  162.0006 C.ar    1  UNL1        0.0047
     16 C         143.9790  139.7438  162.9340 C.ar    1  UNL1        0.0049
     17 C         143.8286  138.4939  162.1183 C.ar    1  UNL1        0.0352
     18 S         143.6755  138.8943  160.6808 S.2     1  UNL1       -0.0862
     19 C         143.7311  140.3915  160.6081 C.ar    1  UNL1        0.0328
     20 C         140.6659  142.2818  168.3869 C.3     1  UNL1        0.0592
     21 C         140.9717  143.2783  169.4655 C.3     1  UNL1        0.0174
     22 C         139.8245  141.0786  168.6940 C.3     1  UNL1        0.0372
     23 C         140.1627  139.7512  168.0829 C.3     1  UNL1        0.0911
     24 N         140.3053  139.6250  166.5951 N.am    1  UNL1       -0.3008
     25 C         139.2563  138.9063  165.7993 C.2     1  UNL1        0.2479
     26 O         138.0647  138.3139  166.4914 O.2     1  UNL1       -0.2701
     27 H         141.0875  140.0138  166.1408 H       1  UNL1        0.1497
     28 C         139.3990  138.7801  164.3115 C.ar    1  UNL1        0.0779
     29 C         138.6677  139.7253  163.4050 C.ar    1  UNL1       -0.0128
     30 C         137.7938  140.7968  163.9864 C.3     1  UNL1        0.0313
     31 C         138.8104  139.5991  161.9172 C.ar    1  UNL1        0.0268
     32 C         139.6844  138.5277  161.3358 C.ar    1  UNL1        0.1390
     33 CL        139.8271  138.4014  159.8479 Cl      1  UNL1       -0.0613
     34 N         140.4157  137.5823  162.2422 N.ar    1  UNL1       -0.2224
     35 C         140.2731  137.7085  163.7301 C.ar    1  UNL1        0.1433
     36 CL        141.0043  136.7633  164.6365 Cl      1  UNL1       -0.0612
@<TRIPOS>BOND
     1    12    13    1
     2    13     7    1
     3     7     8   am
     4     8     9    2
     5     8    10   am
     6    10    14    1
     7    14    15    1
     8    15    16   ar
     9    16    17   ar
    10    17    18   ar
    11    18    19   ar
    12    10     1    1
    13     1     2    1
    14     2     3    1
    15     3     4    1
    16     4    20    1
    17    20    21    1
    18    20    22    1
    19    22    23    1
    20    23    24    1
    21    24    25   am
    22    25    26    2
    23    25    28    1
    24    28    29   ar
    25    29    30    1
    26    29    31   ar
    27    31    32   ar
    28    32    33    1
    29    32    34   ar
    30    34    35   ar
    31    35    36    1
    32     4     5    1
    33     5     6    1
    34    19    15   ar
    35     6     1    1
    36    35    28   ar
    37     7    11    1
    38    24    27    1
@<TRIPOS>MOLECULE
*****
 36 38 0 0 0
SMALL
GASTEIGER

@<TRIPOS>ATOM
      1 C         140.4203  140.7631  166.5635 C.3     1  UNL1        0.0800
      2 C         140.1969  142.1381  166.0073 C.3     1  UNL1        0.0372
      3 C         141.3391  142.8950  165.3972 C.3     1  UNL1        0.0738
      4 N         142.7048  142.2770  165.3433 N.3     1  UNL1       -0.2738
      5 C         142.9283  140.9020  165.8994 C.3     1  UNL1        0.0738
      6 C         141.7860  140.1450  166.5096 C.3     1  UNL1        0.0372
      7 N         137.8871  139.3289  169.2609 N.am    1  UNL1       -0.1773
      8 C         139.0293  140.0859  168.6507 C.2     1  UNL1        0.3266
      9 O         139.9227  140.9228  169.5176 O.2     1  UNL1       -0.2504
     10 N         139.2781  140.0060  167.1737 N.am    1  UNL1       -0.2600
     11 H         137.3007  138.7796  168.6919 H       1  UNL1        0.1841
     12 C         136.3573  138.8803  171.3124 C.3     1  UNL1        0.2056
     13 O         137.6383  139.4088  170.7380 O.3     1  UNL1       -0.2624
     14 C         138.3847  139.1692  166.3068 C.3     1  UNL1        0.1222
     15 C         138.7917  138.8486  164.8990 C.ar    1  UNL1        0.0047
     16 C         138.4040  139.6194  163.6720 C.ar    1  UNL1        0.0049
     17 C         139.0306  138.9482  162.4858 C.ar    1  UNL1        0.0352
     18 S         139.8054  137.7625  162.9798 S.2     1  UNL1       -0.0862
     19 C         139.6578  137.7010  164.4713 C.ar    1  UNL1        0.0328
     20 C         143.8471  143.0340  164.7331 C.3     1  UNL1        0.0592
     21 C         145.1756  142.3636  164.5445 C.3     1  UNL1        0.0174
     22 C         143.6607  144.4614  164.3116 C.3     1  UNL1        0.0372
     23 C         143.8597  144.8519  162.8770 C.3     1  UNL1        0.0911
     24 N         142.7243  144.7355  161.9037 N.am    1  UNL1       -0.3008
     25 C         142.4668  143.4339  161.2039 C.2     1  UNL1        0.2479
     26 O         143.3446  142.2488  161.4774 O.2     1  UNL1       -0.2701
     27 H         142.1482  145.5134  161.7241 H       1  UNL1        0.1497
     28 C         141.3314  143.3176  160.2305 C.ar    1  UNL1        0.0779
     29 C         141.5883  143.4529  158.7589 C.ar    1  UNL1       -0.0128
     30 C         142.9805  143.7047  158.2607 C.3     1  UNL1        0.0313
     31 C         140.4530  143.3366  157.7855 C.ar    1  UNL1        0.0268
     32 C         139.0607  143.0849  158.2838 C.ar    1  UNL1        0.1390
     33 CL        137.9254  142.9685  157.3104 Cl      1  UNL1       -0.0613
     34 N         138.8038  142.9495  159.7555 N.ar    1  UNL1       -0.2224
     35 C         139.9392  143.0658  160.7288 C.ar    1  UNL1        0.1433
     36 CL        139.6823  142.9305  162.2004 Cl      1  UNL1       -0.0612
@<TRIPOS>BOND
     1    12    13    1
     2    13     7    1
     3     7     8   am
     4     8     9    2
     5     8    10   am
     6    10    14    1
     7    14    15    1
     8    15    16   ar
     9    16    17   ar
    10    17    18   ar
    11    18    19   ar
    12    10     1    1
    13     1     2    1
    14     2     3    1
    15     3     4    1
    16     4    20    1
    17    20    21    1
    18    20    22    1
    19    22    23    1
    20    23    24    1
    21    24    25   am
    22    25    26    2
    23    25    28    1
    24    28    29   ar
    25    29    30    1
    26    29    31   ar
    27    31    32   ar
    28    32    33    1
    29    32    34   ar
    30    34    35   ar
    31    35    36    1
    32     4     5    1
    33     5     6    1
    34    19    15   ar
    35     6     1    1
    36    35    28   ar
    37     7    11    1
    38    24    27    1
@<TRIPOS>MOLECULE
*****
 36 38 0 0 0
SMALL
GASTEIGER

@<TRIPOS>ATOM
      1 C         141.2046  142.7659  163.5890 C.3     1  UNL1        0.0800
      2 C         142.5091  142.8428  164.3255 C.3     1  UNL1        0.0372
      3 C         142.5396  142.6784  165.8161 C.3     1  UNL1        0.0738
      4 N         141.2656  142.4370  166.5702 N.3     1  UNL1       -0.2738
      5 C         139.9611  142.3601  165.8338 C.3     1  UNL1        0.0738
      6 C         139.9306  142.5246  164.3432 C.3     1  UNL1        0.0372
      7 N         140.7022  144.3960  160.0056 N.am    1  UNL1       -0.1773
      8 C         140.7328  144.2315  161.4962 C.2     1  UNL1        0.3266
      9 O         140.3220  145.3681  162.3848 O.2     1  UNL1       -0.2504
     10 N         141.1741  142.9304  162.0983 N.am    1  UNL1       -0.2600
     11 H         140.9718  143.6500  159.4224 H       1  UNL1        0.1841
     12 C         140.2897  145.8828  157.9153 C.3     1  UNL1        0.2056
     13 O         140.2609  145.6970  159.4035 O.3     1  UNL1       -0.2624
     14 C         141.5848  141.7939  161.2098 C.3     1  UNL1        0.1222
     15 C         140.5559  140.8245  160.7080 C.ar    1  UNL1        0.0047
     16 C         139.5818  140.0572  161.5521 C.ar    1  UNL1        0.0049
     17 C         138.7443  139.2107  160.6398 C.ar    1  UNL1        0.0352
     18 S         139.2009  139.4549  159.2319 S.2     1  UNL1       -0.0862
     19 C         140.3205  140.4523  159.2741 C.ar    1  UNL1        0.0328
     20 C         141.2961  142.2725  168.0609 C.3     1  UNL1        0.0592
     21 C         140.5422  143.2290  168.9366 C.3     1  UNL1        0.0174
     22 C         142.0806  141.1516  168.6759 C.3     1  UNL1        0.0372
     23 C         141.9615  139.7619  168.1242 C.3     1  UNL1        0.0911
     24 N         141.9037  139.5462  166.6409 N.am    1  UNL1       -0.3008
     25 C         142.9154  138.6641  165.9713 C.2     1  UNL1        0.2479
     26 O         143.9849  137.9977  166.7850 O.2     1  UNL1       -0.2701
     27 H         141.2017  139.9836  166.1068 H       1  UNL1        0.1497
     28 C         142.8576  138.4484  164.4880 C.ar    1  UNL1        0.0779
     29 C         143.9015  139.0583  163.6002 C.ar    1  UNL1       -0.0128
     30 C         145.0031  139.8840  164.1956 C.3     1  UNL1        0.0313
     31 C         143.8437  138.8426  162.1169 C.ar    1  UNL1        0.0268
     32 C         142.7420  138.0170  161.5214 C.ar    1  UNL1        0.1390
     33 CL        142.6842  137.8013  160.0381 Cl      1  UNL1       -0.0613
     34 N         141.6981  137.4070  162.4093 N.ar    1  UNL1       -0.2224
     35 C         141.7559  137.6227  163.8926 C.ar    1  UNL1        0.1433
     36 CL        140.7120  137.0127  164.7804 Cl      1  UNL1       -0.0612
@<TRIPOS>BOND
     1    12    13    1
     2    13     7    1
     3     7     8   am
     4     8     9    2
     5     8    10   am
     6    10    14    1
     7    14    15    1
     8    15    16   ar
     9    16    17   ar
    10    17    18   ar
    11    18    19   ar
    12    10     1    1
    13     1     2    1
    14     2     3    1
    15     3     4    1
    16     4    20    1
    17    20    21    1
    18    20    22    1
    19    22    23    1
    20    23    24    1
    21    24    25   am
    22    25    26    2
    23    25    28    1
    24    28    29   ar
    25    29    30    1
    26    29    31   ar
    27    31    32   ar
    28    32    33    1
    29    32    34   ar
    30    34    35   ar
    31    35    36    1
    32     4     5    1
    33     5     6    1
    34    19    15   ar
    35     6     1    1
    36    35    28   ar
    37     7    11    1
    38    24    27    1
@<TRIPOS>MOLECULE
*****
 36 38 0 0 0
SMALL
GASTEIGER

@<TRIPOS>ATOM
      1 C         142.8876  140.1138  160.8580 C.3     1  UNL1        0.0800
      2 C         142.2556  141.4642  160.6936 C.3     1  UNL1        0.0372
      3 C         142.5954  142.5722  161.6458 C.3     1  UNL1        0.0738
      4 N         143.5673  142.3299  162.7624 N.3     1  UNL1       -0.2738
      5 C         144.1993  140.9796  162.9267 C.3     1  UNL1        0.0738
      6 C         143.8595  139.8715  161.9745 C.3     1  UNL1        0.0372
      7 N         142.9353  137.7824  157.6467 N.am    1  UNL1       -0.1773
      8 C         143.2750  138.8905  158.5989 C.2     1  UNL1        0.3266
      9 O         144.3421  139.8834  158.2443 O.2     1  UNL1       -0.2504
     10 N         142.5478  139.0057  159.9057 N.am    1  UNL1       -0.2600
     11 H         142.2349  137.1308  157.8794 H       1  UNL1        0.1841
     12 C         143.9100  136.3166  155.7358 C.3     1  UNL1        0.2056
     13 O         143.6625  137.6672  156.3398 O.3     1  UNL1       -0.2624
     14 C         141.4808  138.0129  160.2604 C.3     1  UNL1        0.1222
     15 C         140.1043  138.4878  160.6209 C.ar    1  UNL1        0.0047
     16 C         139.2957  138.0337  161.7998 C.ar    1  UNL1        0.0049
     17 C         137.9864  138.7655  161.7733 C.ar    1  UNL1        0.0352
     18 S         137.9861  139.6717  160.5780 S.2     1  UNL1       -0.0862
     19 C         139.2950  139.5001  159.8658 C.ar    1  UNL1        0.0328
     20 C         143.9071  143.4380  163.7146 C.3     1  UNL1        0.0592
     21 C         143.5623  144.8562  163.3687 C.3     1  UNL1        0.0174
     22 C         144.5918  143.1278  165.0127 C.3     1  UNL1        0.0372
     23 C         143.7924  143.0330  166.2783 C.3     1  UNL1        0.0911
     24 N         142.8086  141.9157  166.4622 N.am    1  UNL1       -0.3008
     25 C         141.3602  142.1305  166.1362 C.2     1  UNL1        0.2479
     26 O         140.8957  143.4625  165.6265 O.2     1  UNL1       -0.2701
     27 H         143.1135  141.0415  166.7967 H       1  UNL1        0.1497
     28 C         140.3765  141.0131  166.3201 C.ar    1  UNL1        0.0779
     29 C         139.8223  140.7183  167.6824 C.ar    1  UNL1       -0.0128
     30 C         140.2519  141.5409  168.8609 C.3     1  UNL1        0.0313
     31 C         138.8385  139.6010  167.8662 C.ar    1  UNL1        0.0268
     32 C         138.4090  138.7785  166.6878 C.ar    1  UNL1        0.1390
     33 CL        137.4252  137.6611  166.8716 Cl      1  UNL1       -0.0613
     34 N         138.9631  139.0732  165.3254 N.ar    1  UNL1       -0.2224
     35 C         139.9469  140.1906  165.1415 C.ar    1  UNL1        0.1433
     36 CL        140.5011  140.4854  163.7792 Cl      1  UNL1       -0.0612
@<TRIPOS>BOND
     1    12    13    1
     2    13     7    1
     3     7     8   am
     4     8     9    2
     5     8    10   am
     6    10    14    1
     7    14    15    1
     8    15    16   ar
     9    16    17   ar
    10    17    18   ar
    11    18    19   ar
    12    10     1    1
    13     1     2    1
    14     2     3    1
    15     3     4    1
    16     4    20    1
    17    20    21    1
    18    20    22    1
    19    22    23    1
    20    23    24    1
    21    24    25   am
    22    25    26    2
    23    25    28    1
    24    28    29   ar
    25    29    30    1
    26    29    31   ar
    27    31    32   ar
    28    32    33    1
    29    32    34   ar
    30    34    35   ar
    31    35    36    1
    32     4     5    1
    33     5     6    1
    34    19    15   ar
    35     6     1    1
    36    35    28   ar
    37     7    11    1
    38    24    27    1
@<TRIPOS>MOLECULE
*****
 36 38 0 0 0
SMALL
GASTEIGER

@<TRIPOS>ATOM
      1 C         141.8670  143.7770  161.2780 C.3     1  UNL1        0.0800
      2 C         141.9776  142.3653  160.7833 C.3     1  UNL1        0.0372
      3 C         142.9155  141.4066  161.4550 C.3     1  UNL1        0.0738
      4 N         143.7428  141.8596  162.6213 N.3     1  UNL1       -0.2738
      5 C         143.6323  143.2713  163.1160 C.3     1  UNL1        0.0738
      6 C         142.6944  144.2300  162.4443 C.3     1  UNL1        0.0372
      7 N         140.2303  146.1051  158.5119 N.am    1  UNL1       -0.1773
      8 C         141.1682  145.1463  159.1835 C.2     1  UNL1        0.3266
      9 O         142.3452  144.5980  158.4324 O.2     1  UNL1       -0.2504
     10 N         140.9291  144.7358  160.6063 N.am    1  UNL1       -0.2600
     11 H         139.4579  146.4649  159.0048 H       1  UNL1        0.1841
     12 C         139.3375  147.0497  156.2623 C.3     1  UNL1        0.2056
     13 O         140.4694  146.5156  157.0891 O.3     1  UNL1       -0.2624
     14 C         139.7522  145.2841  161.3574 C.3     1  UNL1        0.1222
     15 C         139.0421  144.4303  162.3659 C.ar    1  UNL1        0.0047
     16 C         139.0008  144.6650  163.8468 C.ar    1  UNL1        0.0049
     17 C         138.1819  143.5716  164.4667 C.ar    1  UNL1        0.0352
     18 S         137.7172  142.6613  163.3688 S.2     1  UNL1       -0.0862
     19 C         138.2489  143.1919  162.0704 C.ar    1  UNL1        0.0328
     20 C         144.6807  140.9008  163.2930 C.3     1  UNL1        0.0592
     21 C         145.9336  141.4084  163.9430 C.3     1  UNL1        0.0174
     22 C         144.3657  139.4344  163.3145 C.3     1  UNL1        0.0372
     23 C         143.1185  138.9450  163.9890 C.3     1  UNL1        0.0911
     24 N         142.7513  139.4578  165.3500 N.am    1  UNL1       -0.3008
     25 C         141.6688  140.4857  165.4972 C.2     1  UNL1        0.2479
     26 O         140.9535  141.0008  164.2835 O.2     1  UNL1       -0.2701
     27 H         143.2207  139.1198  166.1466 H       1  UNL1        0.1497
     28 C         141.3015  140.9985  166.8582 C.ar    1  UNL1        0.0779
     29 C         140.0736  140.4825  167.5479 C.ar    1  UNL1       -0.0128
     30 C         139.2129  139.4536  166.8767 C.3     1  UNL1        0.0313
     31 C         139.7064  140.9952  168.9089 C.ar    1  UNL1        0.0268
     32 C         140.5671  142.0241  169.5801 C.ar    1  UNL1        0.1390
     33 CL        140.1999  142.5369  170.9410 Cl      1  UNL1       -0.0613
     34 N         141.7951  142.5402  168.8903 N.ar    1  UNL1       -0.2224
     35 C         142.1623  142.0274  167.5294 C.ar    1  UNL1        0.1433
     36 CL        143.3903  142.5435  166.8396 Cl      1  UNL1       -0.0612
@<TRIPOS>BOND
     1    12    13    1
     2    13     7    1
     3     7     8   am
     4     8     9    2
     5     8    10   am
     6    10    14    1
     7    14    15    1
     8    15    16   ar
     9    16    17   ar
    10    17    18   ar
    11    18    19   ar
    12    10     1    1
    13     1     2    1
    14     2     3    1
    15     3     4    1
    16     4    20    1
    17    20    21    1
    18    20    22    1
    19    22    23    1
    20    23    24    1
    21    24    25   am
    22    25    26    2
    23    25    28    1
    24    28    29   ar
    25    29    30    1
    26    29    31   ar
    27    31    32   ar
    28    32    33    1
    29    32    34   ar
    30    34    35   ar
    31    35    36    1
    32     4     5    1
    33     5     6    1
    34    19    15   ar
    35     6     1    1
    36    35    28   ar
    37     7    11    1
    38    24    27    1
@<TRIPOS>MOLECULE
*****
 36 38 0 0 0
SMALL
GASTEIGER

@<TRIPOS>ATOM
      1 C         142.3000  140.5642  160.6835 C.3     1  UNL1        0.0800
      2 C         140.8509  140.8572  160.9366 C.3     1  UNL1        0.0372
      3 C         140.4139  142.2549  161.2613 C.3     1  UNL1        0.0738
      4 N         141.4261  143.3596  161.3329 N.3     1  UNL1       -0.2738
      5 C         142.8753  143.0666  161.0798 C.3     1  UNL1        0.0738
      6 C         143.3122  141.6688  160.7551 C.3     1  UNL1        0.0372
      7 N         143.0278  137.2427  158.6370 N.am    1  UNL1       -0.1773
      8 C         142.5908  138.6404  158.9617 C.2     1  UNL1        0.3266
      9 O         142.0076  139.5121  157.8893 O.2     1  UNL1       -0.2504
     10 N         142.7370  139.1664  160.3588 N.am    1  UNL1       -0.2600
     11 H         143.4105  136.6706  159.3409 H       1  UNL1        0.1841
     12 C         143.1139  135.2617  156.9582 C.3     1  UNL1        0.2056
     13 O         142.8816  136.7166  157.2399 O.3     1  UNL1       -0.2624
     14 C         143.3202  138.2947  161.4312 C.3     1  UNL1        0.1222
     15 C         142.6039  138.1343  162.7394 C.ar    1  UNL1        0.0047
     16 C         143.0343  138.7089  164.0565 C.ar    1  UNL1        0.0049
     17 C         142.0279  138.3008  165.0913 C.ar    1  UNL1        0.0352
     18 S         140.9755  137.4740  164.4137 S.2     1  UNL1       -0.0862
     19 C         141.3316  137.3711  162.9602 C.ar    1  UNL1        0.0328
     20 C         140.9891  144.7573  161.6575 C.3     1  UNL1        0.0592
     21 C         140.3467  145.6067  160.6013 C.3     1  UNL1        0.0174
     22 C         141.1946  145.3056  163.0385 C.3     1  UNL1        0.0372
     23 C         141.8716  144.4701  164.0842 C.3     1  UNL1        0.0911
     24 N         141.2919  143.1429  164.4748 N.am    1  UNL1       -0.3008
     25 C         140.0154  143.0840  165.2605 C.2     1  UNL1        0.2479
     26 O         139.3187  144.3522  165.6555 O.2     1  UNL1       -0.2701
     27 H         141.7492  142.3105  164.2156 H       1  UNL1        0.1497
     28 C         139.4358  141.7568  165.6512 C.ar    1  UNL1        0.0779
     29 C         139.9033  141.0730  166.9016 C.ar    1  UNL1       -0.0128
     30 C         140.9505  141.7164  167.7615 C.3     1  UNL1        0.0313
     31 C         139.3237  139.7458  167.2923 C.ar    1  UNL1        0.0268
     32 C         138.2765  139.1024  166.4324 C.ar    1  UNL1        0.1390
     33 CL        137.6968  137.7753  166.8230 Cl      1  UNL1       -0.0613
     34 N         137.8089  139.7863  165.1819 N.ar    1  UNL1       -0.2224
     35 C         138.3885  141.1134  164.7912 C.ar    1  UNL1        0.1433
     36 CL        137.9210  141.7972  163.5407 Cl      1  UNL1       -0.0612
@<TRIPOS>BOND
     1    12    13    1
     2    13     7    1
     3     7     8   am
     4     8     9    2
     5     8    10   am
     6    10    14    1
     7    14    15    1
     8    15    16   ar
     9    16    17   ar
    10    17    18   ar
    11    18    19   ar
    12    10     1    1
    13     1     2    1
    14     2     3    1
    15     3     4    1
    16     4    20    1
    17    20    21    1
    18    20    22    1
    19    22    23    1
    20    23    24    1
    21    24    25   am
    22    25    26    2
    23    25    28    1
    24    28    29   ar
    25    29    30    1
    26    29    31   ar
    27    31    32   ar
    28    32    33    1
    29    32    34   ar
    30    34    35   ar
    31    35    36    1
    32     4     5    1
    33     5     6    1
    34    19    15   ar
    35     6     1    1
    36    35    28   ar
    37     7    11    1
    38    24    27    1
@<TRIPOS>MOLECULE
*****
 36 38 0 0 0
SMALL
GASTEIGER

@<TRIPOS>ATOM
      1 C         140.5471  140.6902  166.5238 C.3     1  UNL1        0.0800
      2 C         141.9177  140.0809  166.5431 C.3     1  UNL1        0.0372
      3 C         143.0736  140.8155  165.9315 C.3     1  UNL1        0.0738
      4 N         142.8591  142.1594  165.3007 N.3     1  UNL1       -0.2738
      5 C         141.4886  142.7687  165.2815 C.3     1  UNL1        0.0738
      6 C         140.3326  142.0341  165.8930 C.3     1  UNL1        0.0372
      7 N         137.9481  139.3614  169.2126 N.am    1  UNL1       -0.1773
      8 C         139.1041  140.0959  168.6010 C.2     1  UNL1        0.3266
      9 O         139.9732  140.9709  169.4550 O.2     1  UNL1       -0.2504
     10 N         139.3911  139.9556  167.1354 N.am    1  UNL1       -0.2600
     11 H         137.3777  138.7872  168.6521 H       1  UNL1        0.1841
     12 C         136.4195  138.8944  171.2608 C.3     1  UNL1        0.2056
     13 O         137.6612  139.5017  170.6782 O.3     1  UNL1       -0.2624
     14 C         138.5221  139.0807  166.2814 C.3     1  UNL1        0.1222
     15 C         138.9674  138.7005  164.9004 C.ar    1  UNL1        0.0047
     16 C         139.9133  137.5891  164.5539 C.ar    1  UNL1        0.0049
     17 C         140.0756  137.5666  163.0628 C.ar    1  UNL1        0.0352
     18 S         139.2300  138.6641  162.4879 S.2     1  UNL1       -0.0862
     19 C         138.5451  139.3648  163.6236 C.ar    1  UNL1        0.0328
     20 C         144.0151  142.8940  164.6891 C.3     1  UNL1        0.0592
     21 C         143.9369  144.3778  164.4841 C.3     1  UNL1        0.0174
     22 C         145.2494  142.1447  164.2827 C.3     1  UNL1        0.0372
     23 C         145.2237  141.2568  163.0740 C.3     1  UNL1        0.0911
     24 N         143.9176  140.9225  162.4165 N.am    1  UNL1       -0.3008
     25 C         143.4584  141.7032  161.2208 C.2     1  UNL1        0.2479
     26 O         144.3052  142.8182  160.6827 O.2     1  UNL1       -0.2701
     27 H         143.3618  140.1906  162.7697 H       1  UNL1        0.1497
     28 C         142.1522  141.3689  160.5633 C.ar    1  UNL1        0.0779
     29 C         142.0696  140.2227  159.5993 C.ar    1  UNL1       -0.0128
     30 C         143.2930  139.4109  159.2928 C.3     1  UNL1        0.0313
     31 C         140.7635  139.8884  158.9418 C.ar    1  UNL1        0.0268
     32 C         139.5400  140.7003  159.2483 C.ar    1  UNL1        0.1390
     33 CL        138.2339  140.3660  158.5908 Cl      1  UNL1       -0.0613
     34 N         139.6226  141.8465  160.2124 N.ar    1  UNL1       -0.2224
     35 C         140.9288  142.1809  160.8699 C.ar    1  UNL1        0.1433
     36 CL        141.0114  143.3270  161.8339 Cl      1  UNL1       -0.0612
@<TRIPOS>BOND
     1    12    13    1
     2    13     7    1
     3     7     8   am
     4     8     9    2
     5     8    10   am
     6    10    14    1
     7    14    15    1
     8    15    16   ar
     9    16    17   ar
    10    17    18   ar
    11    18    19   ar
    12    10     1    1
    13     1     2    1
    14     2     3    1
    15     3     4    1
    16     4    20    1
    17    20    21    1
    18    20    22    1
    19    22    23    1
    20    23    24    1
    21    24    25   am
    22    25    26    2
    23    25    28    1
    24    28    29   ar
    25    29    30    1
    26    29    31   ar
    27    31    32   ar
    28    32    33    1
    29    32    34   ar
    30    34    35   ar
    31    35    36    1
    32     4     5    1
    33     5     6    1
    34    19    15   ar
    35     6     1    1
    36    35    28   ar
    37     7    11    1
    38    24    27    1
