@<TRIPOS>MOLECULE
*****
 36 39 0 0 0
SMALL
GASTEIGER

@<TRIPOS>ATOM
      1 C         144.4254  140.7532  162.4973 C.ar    1  UNL1       -0.0061
      2 C         143.4314  140.1575  161.5448 C.ar    1  UNL1       -0.0017
      3 C         143.0428  140.9032  160.3028 C.ar    1  UNL1        0.0140
      4 C         143.6481  142.2448  160.0131 C.ar    1  UNL1        0.0446
      5 C         144.6420  142.8405  160.9655 C.ar    1  UNL1        0.0140
      6 C         145.0307  142.0947  162.2077 C.ar    1  UNL1       -0.0017
      7 N         143.2594  142.9906  158.7710 N.pl3   1  UNL1       -0.3326
      8 H         143.9211  143.1359  158.0567 H       1  UNL1        0.1468
      9 C         141.8625  143.5149  158.6172 C.3     1  UNL1        0.0874
     10 C         141.5780  144.9697  158.8462 C.3     1  UNL1        0.0275
     11 C         140.5295  145.3821  159.8365 C.3     1  UNL1        0.0494
     12 C         140.3263  144.5837  161.0899 C.ar    1  UNL1        0.0808
     13 C         141.4573  144.4092  162.0596 C.ar    1  UNL1        0.0213
     14 C         141.2541  143.6107  163.3131 C.ar    1  UNL1        0.0609
     15 C         139.9199  142.9868  163.5969 C.ar    1  UNL1        0.2483
     16 N         138.7888  143.1613  162.6271 N.ar    1  UNL1       -0.1102
     17 N         138.9920  143.9598  161.3737 N.ar    1  UNL1       -0.1495
     18 O         139.7166  142.1883  164.8503 O.3     1  UNL1       -0.4349
     19 C         139.6797  140.6901  164.7875 C.ar    1  UNL1        0.1472
     20 C         140.5065  139.9615  163.7699 C.ar    1  UNL1        0.0376
     21 C         140.4696  138.4633  163.7070 C.ar    1  UNL1        0.0031
     22 C         139.6058  137.6937  164.6617 C.ar    1  UNL1        0.0002
     23 C         138.7789  138.4223  165.6793 C.ar    1  UNL1        0.0031
     24 C         138.8159  139.9204  165.7422 C.ar    1  UNL1        0.0376
     25 C         144.8140  140.0074  163.7394 C.3     1  UNL1        0.0991
     26 C         142.2640  140.3079  167.4350 C.3     1  UNL1        0.0743
     27 C         142.6533  141.5498  166.6893 C.3     1  UNL1        0.0369
     28 C         143.5033  141.4497  165.4575 C.3     1  UNL1        0.0741
     29 N         143.9640  140.1076  164.9712 N.3     1  UNL1       -0.2689
     30 C         143.5747  138.8657  165.7169 C.3     1  UNL1        0.0741
     31 C         142.7247  138.9658  166.9487 C.3     1  UNL1        0.0369
     32 C         141.1732  140.9498  171.1963 C.3     1  UNL1        0.0946
     33 C         142.0232  140.8497  169.9645 C.2     1  UNL1        0.2229
     34 O         143.4823  141.1911  170.0303 O.2     1  UNL1       -0.2751
     35 N         141.4140  140.4081  168.6668 N.am    1  UNL1       -0.3059
     36 H         140.4564  140.1840  168.6236 H       1  UNL1        0.1494
@<TRIPOS>BOND
     1    32    33    1
     2    33    34    2
     3    33    35   am
     4    35    26    1
     5    26    27    1
     6    27    28    1
     7    28    29    1
     8    29    25    1
     9    25     1    1
    10     1     2   ar
    11     2     3   ar
    12     3     4   ar
    13     4     7    1
    14     7     9    1
    15     9    10    1
    16    10    11    1
    17    11    12    1
    18    12    13   ar
    19    13    14   ar
    20    14    15   ar
    21    15    18    1
    22    18    19    1
    23    19    20   ar
    24    20    21   ar
    25    21    22   ar
    26    22    23   ar
    27    23    24   ar
    28    15    16   ar
    29    16    17   ar
    30     4     5   ar
    31     5     6   ar
    32    29    30    1
    33    30    31    1
    34    31    26    1
    35     6     1   ar
    36    17    12   ar
    37    24    19   ar
    38    35    36    1
    39     7     8    1
@<TRIPOS>MOLECULE
*****
 36 39 0 0 0
SMALL
GASTEIGER

@<TRIPOS>ATOM
      1 C         140.0692  138.8871  160.4661 C.ar    1  UNL1       -0.0061
      2 C         140.2073  138.6200  158.9965 C.ar    1  UNL1       -0.0017
      3 C         141.4815  138.9706  158.2870 C.ar    1  UNL1        0.0140
      4 C         142.6176  139.5883  159.0470 C.ar    1  UNL1        0.0446
      5 C         142.4795  139.8555  160.5165 C.ar    1  UNL1        0.0140
      6 C         141.2053  139.5049  161.2261 C.ar    1  UNL1       -0.0017
      7 N         143.8919  139.9389  158.3374 N.pl3   1  UNL1       -0.3326
      8 H         144.3978  139.2417  157.8609 H       1  UNL1        0.1468
      9 C         144.3952  141.3519  158.3539 C.3     1  UNL1        0.0874
     10 C         144.1078  142.2638  157.1982 C.3     1  UNL1        0.0275
     11 C         142.6987  142.6915  156.9125 C.3     1  UNL1        0.0494
     12 C         141.8971  143.3883  157.9716 C.ar    1  UNL1        0.0808
     13 C         140.6918  142.7186  158.5621 C.ar    1  UNL1        0.0213
     14 C         139.8901  143.4155  159.6213 C.ar    1  UNL1        0.0609
     15 C         140.2938  144.7820  160.0899 C.ar    1  UNL1        0.2483
     16 N         141.4992  145.4517  159.4994 N.ar    1  UNL1       -0.1102
     17 N         142.3008  144.7548  158.4403 N.ar    1  UNL1       -0.1495
     18 O         139.4922  145.4789  161.1490 O.3     1  UNL1       -0.4349
     19 C         139.3876  144.8853  162.5227 C.ar    1  UNL1        0.1472
     20 C         138.0465  144.4999  163.0731 C.ar    1  UNL1        0.0376
     21 C         137.9420  143.9064  164.4466 C.ar    1  UNL1        0.0031
     22 C         139.1785  143.6983  165.2698 C.ar    1  UNL1        0.0002
     23 C         140.5196  144.0837  164.7194 C.ar    1  UNL1        0.0031
     24 C         140.6241  144.6772  163.3459 C.ar    1  UNL1        0.0376
     25 C         138.7950  138.5365  161.1756 C.3     1  UNL1        0.0991
     26 C         138.4841  139.0624  165.6339 C.3     1  UNL1        0.0743
     27 C         139.0092  137.7777  165.0651 C.3     1  UNL1        0.0369
     28 C         139.1129  137.6024  163.5790 C.3     1  UNL1        0.0741
     29 N         138.6914  138.7118  162.6617 N.3     1  UNL1       -0.2689
     30 C         138.1662  139.9965  163.2306 C.3     1  UNL1        0.0741
     31 C         138.0626  140.1718  164.7167 C.3     1  UNL1        0.0369
     32 C         139.3113  140.2129  169.3410 C.3     1  UNL1        0.0946
     33 C         139.4149  140.0376  167.8548 C.2     1  UNL1        0.2229
     34 O         140.5531  140.6623  167.1035 O.2     1  UNL1       -0.2751
     35 N         138.3805  139.2377  167.1201 N.am    1  UNL1       -0.3059
     36 H         137.6335  138.8277  167.6132 H       1  UNL1        0.1494
@<TRIPOS>BOND
     1    32    33    1
     2    33    34    2
     3    33    35   am
     4    35    26    1
     5    26    27    1
     6    27    28    1
     7    28    29    1
     8    29    25    1
     9    25     1    1
    10     1     2   ar
    11     2     3   ar
    12     3     4   ar
    13     4     7    1
    14     7     9    1
    15     9    10    1
    16    10    11    1
    17    11    12    1
    18    12    13   ar
    19    13    14   ar
    20    14    15   ar
    21    15    18    1
    22    18    19    1
    23    19    20   ar
    24    20    21   ar
    25    21    22   ar
    26    22    23   ar
    27    23    24   ar
    28    15    16   ar
    29    16    17   ar
    30     4     5   ar
    31     5     6   ar
    32    29    30    1
    33    30    31    1
    34    31    26    1
    35     6     1   ar
    36    17    12   ar
    37    24    19   ar
    38    35    36    1
    39     7     8    1
@<TRIPOS>MOLECULE
*****
 36 39 0 0 0
SMALL
GASTEIGER

@<TRIPOS>ATOM
      1 C         138.7364  139.9264  162.9674 C.ar    1  UNL1       -0.0061
      2 C         139.1660  140.8985  161.9088 C.ar    1  UNL1       -0.0017
      3 C         139.3914  140.4255  160.5033 C.ar    1  UNL1        0.0140
      4 C         139.1871  138.9806  160.1563 C.ar    1  UNL1        0.0446
      5 C         138.7575  138.0086  161.2148 C.ar    1  UNL1        0.0140
      6 C         138.5321  138.4815  162.6204 C.ar    1  UNL1       -0.0017
      7 N         139.4125  138.5077  158.7507 N.pl3   1  UNL1       -0.3326
      8 H         138.7997  137.8507  158.3481 H       1  UNL1        0.1468
      9 C         140.5717  139.0357  157.9585 C.3     1  UNL1        0.0874
     10 C         141.7237  138.1352  157.6240 C.3     1  UNL1        0.0275
     11 C         142.6024  137.6038  158.7174 C.3     1  UNL1        0.0494
     12 C         142.9385  138.4681  159.8963 C.ar    1  UNL1        0.0808
     13 C         142.4698  138.0813  161.2677 C.ar    1  UNL1        0.0213
     14 C         142.8059  138.9457  162.4467 C.ar    1  UNL1        0.0609
     15 C         143.6107  140.1968  162.2543 C.ar    1  UNL1        0.2483
     16 N         144.0794  140.5835  160.8828 N.ar    1  UNL1       -0.1102
     17 N         143.7433  139.7192  159.7039 N.ar    1  UNL1       -0.1495
     18 O         143.9467  141.0611  163.4332 O.3     1  UNL1       -0.4349
     19 C         143.3935  142.4524  163.5252 C.ar    1  UNL1        0.1472
     20 C         144.1933  143.5353  164.1868 C.ar    1  UNL1        0.0376
     21 C         143.6402  144.9265  164.2788 C.ar    1  UNL1        0.0031
     22 C         142.2873  145.2348  163.7092 C.ar    1  UNL1        0.0002
     23 C         141.4875  144.1519  163.0476 C.ar    1  UNL1        0.0031
     24 C         142.0406  142.7607  162.9556 C.ar    1  UNL1        0.0376
     25 C         138.5110  140.3993  164.3729 C.3     1  UNL1        0.0991
     26 C         141.9825  141.8453  166.8443 C.3     1  UNL1        0.0743
     27 C         141.9863  140.4521  166.2884 C.3     1  UNL1        0.0369
     28 C         140.8291  139.9701  165.4646 C.3     1  UNL1        0.0741
     29 N         139.6682  140.8813  165.1967 N.3     1  UNL1       -0.2689
     30 C         139.6643  142.2745  165.7526 C.3     1  UNL1        0.0741
     31 C         140.8215  142.7564  166.5764 C.3     1  UNL1        0.0369
     32 C         144.3046  142.5887  169.9756 C.3     1  UNL1        0.0946
     33 C         143.1475  142.1068  169.1518 C.2     1  UNL1        0.2229
     34 O         141.9980  141.4043  169.8117 O.2     1  UNL1       -0.2751
     35 N         143.1397  142.3272  167.6681 N.am    1  UNL1       -0.3059
     36 H         143.8941  142.7883  167.2350 H       1  UNL1        0.1494
@<TRIPOS>BOND
     1    32    33    1
     2    33    34    2
     3    33    35   am
     4    35    26    1
     5    26    27    1
     6    27    28    1
     7    28    29    1
     8    29    25    1
     9    25     1    1
    10     1     2   ar
    11     2     3   ar
    12     3     4   ar
    13     4     7    1
    14     7     9    1
    15     9    10    1
    16    10    11    1
    17    11    12    1
    18    12    13   ar
    19    13    14   ar
    20    14    15   ar
    21    15    18    1
    22    18    19    1
    23    19    20   ar
    24    20    21   ar
    25    21    22   ar
    26    22    23   ar
    27    23    24   ar
    28    15    16   ar
    29    16    17   ar
    30     4     5   ar
    31     5     6   ar
    32    29    30    1
    33    30    31    1
    34    31    26    1
    35     6     1   ar
    36    17    12   ar
    37    24    19   ar
    38    35    36    1
    39     7     8    1
@<TRIPOS>MOLECULE
*****
 36 39 0 0 0
SMALL
GASTEIGER

@<TRIPOS>ATOM
      1 C         141.9390  138.5158  162.5880 C.ar    1  UNL1       -0.0061
      2 C         140.8044  139.1737  161.8599 C.ar    1  UNL1       -0.0017
      3 C         140.8795  139.3695  160.3746 C.ar    1  UNL1        0.0140
      4 C         142.0891  138.9074  159.6174 C.ar    1  UNL1        0.0446
      5 C         143.2236  138.2495  160.3454 C.ar    1  UNL1        0.0140
      6 C         143.1485  138.0537  161.8307 C.ar    1  UNL1       -0.0017
      7 N         142.1641  139.1033  158.1321 N.pl3   1  UNL1       -0.3326
      8 H         141.3877  138.8860  157.5671 H       1  UNL1        0.1468
      9 C         143.4221  139.6300  157.5077 C.3     1  UNL1        0.0874
     10 C         143.6083  141.1075  157.3277 C.3     1  UNL1        0.0275
     11 C         144.4423  141.8828  158.3041 C.3     1  UNL1        0.0494
     12 C         143.8067  142.4818  159.5236 C.ar    1  UNL1        0.0808
     13 C         144.0247  141.8537  160.8681 C.ar    1  UNL1        0.0213
     14 C         143.3891  142.4526  162.0877 C.ar    1  UNL1        0.0609
     15 C         142.5355  143.6797  161.9627 C.ar    1  UNL1        0.2483
     16 N         142.3175  144.3078  160.6180 N.ar    1  UNL1       -0.1102
     17 N         142.9531  143.7089  159.3985 N.ar    1  UNL1       -0.1495
     18 O         141.8999  144.2787  163.1821 O.3     1  UNL1       -0.4349
     19 C         140.5201  143.8570  163.5927 C.ar    1  UNL1        0.1472
     20 C         139.7156  144.7217  164.5174 C.ar    1  UNL1        0.0376
     21 C         138.3359  144.3000  164.9279 C.ar    1  UNL1        0.0031
     22 C         137.7607  143.0136  164.4138 C.ar    1  UNL1        0.0002
     23 C         138.5653  142.1489  163.4891 C.ar    1  UNL1        0.0031
     24 C         139.9449  142.5706  163.0786 C.ar    1  UNL1        0.0376
     25 C         141.8639  138.3200  164.0732 C.3     1  UNL1        0.0991
     26 C         140.8011  141.7793  166.7479 C.3     1  UNL1        0.0743
     27 C         139.8425  140.6376  166.5818 C.3     1  UNL1        0.0369
     28 C         140.1968  139.4845  165.6903 C.3     1  UNL1        0.0741
     29 N         141.5096  139.4731  164.9648 N.3     1  UNL1       -0.2689
     30 C         142.4681  140.6149  165.1308 C.3     1  UNL1        0.0741
     31 C         142.1138  141.7680  166.0223 C.3     1  UNL1        0.0369
     32 C         140.4245  144.0329  169.9928 C.3     1  UNL1        0.0946
     33 C         140.7787  142.8798  169.1012 C.2     1  UNL1        0.2229
     34 O         141.4650  141.6740  169.6716 O.2     1  UNL1       -0.2751
     35 N         140.4468  142.9324  167.6394 N.am    1  UNL1       -0.3059
     36 H         139.9964  143.7238  167.2651 H       1  UNL1        0.1494
@<TRIPOS>BOND
     1    32    33    1
     2    33    34    2
     3    33    35   am
     4    35    26    1
     5    26    27    1
     6    27    28    1
     7    28    29    1
     8    29    25    1
     9    25     1    1
    10     1     2   ar
    11     2     3   ar
    12     3     4   ar
    13     4     7    1
    14     7     9    1
    15     9    10    1
    16    10    11    1
    17    11    12    1
    18    12    13   ar
    19    13    14   ar
    20    14    15   ar
    21    15    18    1
    22    18    19    1
    23    19    20   ar
    24    20    21   ar
    25    21    22   ar
    26    22    23   ar
    27    23    24   ar
    28    15    16   ar
    29    16    17   ar
    30     4     5   ar
    31     5     6   ar
    32    29    30    1
    33    30    31    1
    34    31    26    1
    35     6     1   ar
    36    17    12   ar
    37    24    19   ar
    38    35    36    1
    39     7     8    1
@<TRIPOS>MOLECULE
*****
 36 39 0 0 0
SMALL
GASTEIGER

@<TRIPOS>ATOM
      1 C         143.4836  140.0949  160.5781 C.ar    1  UNL1       -0.0061
      2 C         142.8797  140.1370  159.2055 C.ar    1  UNL1       -0.0017
      3 C         142.8171  141.4331  158.4532 C.ar    1  UNL1        0.0140
      4 C         143.3583  142.6871  159.0732 C.ar    1  UNL1        0.0446
      5 C         143.9621  142.6451  160.4456 C.ar    1  UNL1        0.0140
      6 C         144.0247  141.3489  161.1981 C.ar    1  UNL1       -0.0017
      7 N         143.2957  143.9833  158.3207 N.pl3   1  UNL1       -0.3326
      8 H         144.0248  144.2324  157.7079 H       1  UNL1        0.1468
      9 C         142.1222  144.8998  158.5020 C.3     1  UNL1        0.0874
     10 C         140.9918  144.5015  159.4040 C.3     1  UNL1        0.0275
     11 C         140.9164  145.0489  160.7985 C.3     1  UNL1        0.0494
     12 C         141.1661  144.1486  161.9721 C.ar    1  UNL1        0.0808
     13 C         141.9739  144.6406  163.1362 C.ar    1  UNL1        0.0213
     14 C         142.2236  143.7404  164.3099 C.ar    1  UNL1        0.0609
     15 C         141.6653  142.3482  164.3193 C.ar    1  UNL1        0.2483
     16 N         140.8574  141.8562  163.1550 N.ar    1  UNL1       -0.1102
     17 N         140.6078  142.7564  161.9815 N.ar    1  UNL1       -0.1495
     18 O         141.9150  141.4480  165.4928 O.3     1  UNL1       -0.4349
     19 C         141.8299  141.9931  166.8877 C.ar    1  UNL1        0.1472
     20 C         143.0441  141.9925  167.7685 C.ar    1  UNL1        0.0376
     21 C         142.9591  142.5376  169.1633 C.ar    1  UNL1        0.0031
     22 C         141.6599  143.0833  169.6774 C.ar    1  UNL1        0.0002
     23 C         140.4457  143.0839  168.7966 C.ar    1  UNL1        0.0031
     24 C         140.5307  142.5388  167.4018 C.ar    1  UNL1        0.0376
     25 C         143.5462  138.7988  161.3304 C.3     1  UNL1        0.0991
     26 C         140.3879  137.8129  164.3806 C.3     1  UNL1        0.0743
     27 C         140.0342  137.8621  162.9238 C.3     1  UNL1        0.0369
     28 C         141.0870  138.1907  161.9071 C.3     1  UNL1        0.0741
     29 N         142.4934  138.4701  162.3472 N.3     1  UNL1       -0.2689
     30 C         142.8472  138.4209  163.8040 C.3     1  UNL1        0.0741
     31 C         141.7944  138.0923  164.8207 C.3     1  UNL1        0.0369
     32 C         137.4666  138.2530  167.0305 C.3     1  UNL1        0.0946
     33 C         138.5194  138.5816  166.0138 C.2     1  UNL1        0.2229
     34 O         138.7563  140.0078  165.6136 O.2     1  UNL1       -0.2751
     35 N         139.3352  137.4842  165.3973 N.am    1  UNL1       -0.3059
     36 H         139.1797  136.5482  165.6600 H       1  UNL1        0.1494
@<TRIPOS>BOND
     1    32    33    1
     2    33    34    2
     3    33    35   am
     4    35    26    1
     5    26    27    1
     6    27    28    1
     7    28    29    1
     8    29    25    1
     9    25     1    1
    10     1     2   ar
    11     2     3   ar
    12     3     4   ar
    13     4     7    1
    14     7     9    1
    15     9    10    1
    16    10    11    1
    17    11    12    1
    18    12    13   ar
    19    13    14   ar
    20    14    15   ar
    21    15    18    1
    22    18    19    1
    23    19    20   ar
    24    20    21   ar
    25    21    22   ar
    26    22    23   ar
    27    23    24   ar
    28    15    16   ar
    29    16    17   ar
    30     4     5   ar
    31     5     6   ar
    32    29    30    1
    33    30    31    1
    34    31    26    1
    35     6     1   ar
    36    17    12   ar
    37    24    19   ar
    38    35    36    1
    39     7     8    1
@<TRIPOS>MOLECULE
*****
 36 39 0 0 0
SMALL
GASTEIGER

@<TRIPOS>ATOM
      1 C         139.2472  143.4459  163.8074 C.ar    1  UNL1       -0.0061
      2 C         138.0070  142.6039  163.8639 C.ar    1  UNL1       -0.0017
      3 C         137.9350  141.4368  164.8034 C.ar    1  UNL1        0.0140
      4 C         139.1031  141.1117  165.6865 C.ar    1  UNL1        0.0446
      5 C         140.3432  141.9536  165.6301 C.ar    1  UNL1        0.0140
      6 C         140.4152  143.1207  164.6905 C.ar    1  UNL1       -0.0017
      7 N         139.0310  139.9445  166.6260 N.pl3   1  UNL1       -0.3326
      8 H         139.6502  139.8880  167.3893 H       1  UNL1        0.1468
      9 C         138.0155  138.8634  166.4025 C.3     1  UNL1        0.0874
     10 C         138.4545  137.5065  165.9379 C.3     1  UNL1        0.0275
     11 C         139.0020  137.3289  164.5527 C.3     1  UNL1        0.0494
     12 C         140.1214  138.2033  164.0708 C.ar    1  UNL1        0.0808
     13 C         141.4598  138.1483  164.7457 C.ar    1  UNL1        0.0213
     14 C         142.5793  139.0228  164.2638 C.ar    1  UNL1        0.0609
     15 C         142.3602  139.9523  163.1071 C.ar    1  UNL1        0.2483
     16 N         141.0217  140.0073  162.4322 N.ar    1  UNL1       -0.1102
     17 N         139.9023  139.1328  162.9141 N.ar    1  UNL1       -0.1495
     18 O         143.4796  140.8268  162.6252 O.3     1  UNL1       -0.4349
     19 C         143.6216  142.2232  163.1545 C.ar    1  UNL1        0.1472
     20 C         144.1489  142.4500  164.5403 C.ar    1  UNL1        0.0376
     21 C         144.2909  143.8463  165.0696 C.ar    1  UNL1        0.0031
     22 C         143.9056  145.0158  164.2130 C.ar    1  UNL1        0.0002
     23 C         143.3783  144.7890  162.8272 C.ar    1  UNL1        0.0031
     24 C         143.2363  143.3927  162.2979 C.ar    1  UNL1        0.0376
     25 C         139.3192  144.6130  162.8680 C.3     1  UNL1        0.0991
     26 C         140.7506  144.0160  158.6437 C.3     1  UNL1        0.0743
     27 C         140.1185  142.8782  159.3892 C.3     1  UNL1        0.0369
     28 C         139.6414  143.0772  160.7973 C.3     1  UNL1        0.0741
     29 N         139.7963  144.4140  161.4599 N.3     1  UNL1       -0.2689
     30 C         140.4284  145.5517  160.7143 C.3     1  UNL1        0.0741
     31 C         140.9056  145.3527  159.3062 C.3     1  UNL1        0.0369
     32 C         143.1519  143.3275  155.5599 C.3     1  UNL1        0.0946
     33 C         142.6748  143.5265  156.9680 C.2     1  UNL1        0.2229
     34 O         143.6448  143.4350  158.1086 O.2     1  UNL1       -0.2751
     35 N         141.2278  143.8170  157.2356 N.am    1  UNL1       -0.3059
     36 H         140.5912  143.8770  156.4870 H       1  UNL1        0.1494
@<TRIPOS>BOND
     1    32    33    1
     2    33    34    2
     3    33    35   am
     4    35    26    1
     5    26    27    1
     6    27    28    1
     7    28    29    1
     8    29    25    1
     9    25     1    1
    10     1     2   ar
    11     2     3   ar
    12     3     4   ar
    13     4     7    1
    14     7     9    1
    15     9    10    1
    16    10    11    1
    17    11    12    1
    18    12    13   ar
    19    13    14   ar
    20    14    15   ar
    21    15    18    1
    22    18    19    1
    23    19    20   ar
    24    20    21   ar
    25    21    22   ar
    26    22    23   ar
    27    23    24   ar
    28    15    16   ar
    29    16    17   ar
    30     4     5   ar
    31     5     6   ar
    32    29    30    1
    33    30    31    1
    34    31    26    1
    35     6     1   ar
    36    17    12   ar
    37    24    19   ar
    38    35    36    1
    39     7     8    1
@<TRIPOS>MOLECULE
*****
 36 39 0 0 0
SMALL
GASTEIGER

@<TRIPOS>ATOM
      1 C         140.6000  138.4647  163.1883 C.ar    1  UNL1       -0.0061
      2 C         141.0800  139.6398  162.3889 C.ar    1  UNL1       -0.0017
      3 C         140.2954  140.1086  161.1996 C.ar    1  UNL1        0.0140
      4 C         139.0308  139.4025  160.8096 C.ar    1  UNL1        0.0446
      5 C         138.5508  138.2275  161.6089 C.ar    1  UNL1        0.0140
      6 C         139.3354  137.7586  162.7983 C.ar    1  UNL1       -0.0017
      7 N         138.2462  139.8714  159.6202 N.pl3   1  UNL1       -0.3326
      8 H         137.3236  140.1953  159.7356 H       1  UNL1        0.1468
      9 C         138.8671  139.8470  158.2550 C.3     1  UNL1        0.0874
     10 C         138.9345  141.1038  157.4391 C.3     1  UNL1        0.0275
     11 C         138.3329  142.3731  157.9658 C.3     1  UNL1        0.0494
     12 C         138.9254  143.0400  159.1716 C.ar    1  UNL1        0.0808
     13 C         140.2563  143.7246  159.0719 C.ar    1  UNL1        0.0213
     14 C         140.8489  144.3916  160.2777 C.ar    1  UNL1        0.0609
     15 C         140.1105  144.3739  161.5833 C.ar    1  UNL1        0.2483
     16 N         138.7796  143.6892  161.6830 N.ar    1  UNL1       -0.1102
     17 N         138.1870  143.0223  160.4772 N.ar    1  UNL1       -0.1495
     18 O         140.7031  145.0408  162.7891 O.3     1  UNL1       -0.4349
     19 C         141.7934  144.3604  163.5627 C.ar    1  UNL1        0.1472
     20 C         141.5997  142.9571  164.0557 C.ar    1  UNL1        0.0376
     21 C         142.6900  142.2767  164.8291 C.ar    1  UNL1        0.0031
     22 C         143.9740  142.9996  165.1096 C.ar    1  UNL1        0.0002
     23 C         144.1676  144.4030  164.6166 C.ar    1  UNL1        0.0031
     24 C         143.0774  145.0834  163.8431 C.ar    1  UNL1        0.0376
     25 C         141.3846  137.9958  164.3776 C.3     1  UNL1        0.0991
     26 C         141.5582  140.5228  168.0971 C.3     1  UNL1        0.0743
     27 C         140.3287  140.5362  167.2379 C.3     1  UNL1        0.0369
     28 C         140.2708  139.6939  165.9981 C.3     1  UNL1        0.0741
     29 N         141.4425  138.8381  165.6174 N.3     1  UNL1       -0.2689
     30 C         142.6719  138.8247  166.4766 C.3     1  UNL1        0.0741
     31 C         142.7298  139.6670  167.7164 C.3     1  UNL1        0.0369
     32 C         142.7176  143.2765  170.7091 C.3     1  UNL1        0.0946
     33 C         142.6597  142.4342  169.4692 C.2     1  UNL1        0.2229
     34 O         143.6457  142.6611  168.3617 O.2     1  UNL1       -0.2751
     35 N         141.6160  141.3651  169.3369 N.am    1  UNL1       -0.3059
     36 H         140.9689  141.2162  170.0638 H       1  UNL1        0.1494
@<TRIPOS>BOND
     1    32    33    1
     2    33    34    2
     3    33    35   am
     4    35    26    1
     5    26    27    1
     6    27    28    1
     7    28    29    1
     8    29    25    1
     9    25     1    1
    10     1     2   ar
    11     2     3   ar
    12     3     4   ar
    13     4     7    1
    14     7     9    1
    15     9    10    1
    16    10    11    1
    17    11    12    1
    18    12    13   ar
    19    13    14   ar
    20    14    15   ar
    21    15    18    1
    22    18    19    1
    23    19    20   ar
    24    20    21   ar
    25    21    22   ar
    26    22    23   ar
    27    23    24   ar
    28    15    16   ar
    29    16    17   ar
    30     4     5   ar
    31     5     6   ar
    32    29    30    1
    33    30    31    1
    34    31    26    1
    35     6     1   ar
    36    17    12   ar
    37    24    19   ar
    38    35    36    1
    39     7     8    1
@<TRIPOS>MOLECULE
*****
 36 39 0 0 0
SMALL
GASTEIGER

@<TRIPOS>ATOM
      1 C         143.0714  139.7131  160.3924 C.ar    1  UNL1       -0.0061
      2 C         141.6323  139.9688  160.7299 C.ar    1  UNL1       -0.0017
      3 C         140.8375  140.9554  159.9269 C.ar    1  UNL1        0.0140
      4 C         141.4817  141.6862  158.7862 C.ar    1  UNL1        0.0446
      5 C         142.9206  141.4305  158.4487 C.ar    1  UNL1        0.0140
      6 C         143.7155  140.4439  159.2518 C.ar    1  UNL1       -0.0017
      7 N         140.6868  142.6728  157.9832 N.pl3   1  UNL1       -0.3326
      8 H         139.8710  142.3825  157.5146 H       1  UNL1        0.1468
      9 C         141.1348  144.1015  157.8940 C.3     1  UNL1        0.0874
     10 C         141.6901  144.7903  159.1052 C.3     1  UNL1        0.0275
     11 C         140.7612  145.3918  160.1178 C.3     1  UNL1        0.0494
     12 C         139.9845  144.5036  161.0439 C.ar    1  UNL1        0.0808
     13 C         140.3915  144.3811  162.4824 C.ar    1  UNL1        0.0213
     14 C         139.6147  143.4929  163.4086 C.ar    1  UNL1        0.0609
     15 C         138.4310  142.7271  162.8962 C.ar    1  UNL1        0.2483
     16 N         138.0241  142.8497  161.4576 N.ar    1  UNL1       -0.1102
     17 N         138.8008  143.7379  160.5315 N.ar    1  UNL1       -0.1495
     18 O         137.6543  141.8389  163.8223 O.3     1  UNL1       -0.4349
     19 C         138.0802  140.4155  164.0292 C.ar    1  UNL1        0.1472
     20 C         138.3835  139.5441  162.8466 C.ar    1  UNL1        0.0376
     21 C         138.8094  138.1208  163.0534 C.ar    1  UNL1        0.0031
     22 C         138.9320  137.5690  164.4428 C.ar    1  UNL1        0.0002
     23 C         138.6287  138.4404  165.6254 C.ar    1  UNL1        0.0031
     24 C         138.2028  139.8637  165.4186 C.ar    1  UNL1        0.0376
     25 C         143.8662  138.7265  161.1955 C.3     1  UNL1        0.0991
     26 C         143.4944  138.6561  165.6795 C.3     1  UNL1        0.0743
     27 C         142.4855  137.9394  164.8320 C.3     1  UNL1        0.0369
     28 C         142.6094  137.9629  163.3373 C.3     1  UNL1        0.0741
     29 N         143.7422  138.7030  162.6902 N.3     1  UNL1       -0.2689
     30 C         144.7511  139.4198  163.5377 C.3     1  UNL1        0.0741
     31 C         144.6272  139.3963  165.0324 C.3     1  UNL1        0.0369
     32 C         142.3918  139.6252  169.3667 C.3     1  UNL1        0.0946
     33 C         142.5157  139.6487  167.8720 C.2     1  UNL1        0.2229
     34 O         141.7849  140.6884  167.0751 O.2     1  UNL1       -0.2751
     35 N         143.3704  138.6326  167.1742 N.am    1  UNL1       -0.3059
     36 H         143.8501  137.9502  167.6973 H       1  UNL1        0.1494
@<TRIPOS>BOND
     1    32    33    1
     2    33    34    2
     3    33    35   am
     4    35    26    1
     5    26    27    1
     6    27    28    1
     7    28    29    1
     8    29    25    1
     9    25     1    1
    10     1     2   ar
    11     2     3   ar
    12     3     4   ar
    13     4     7    1
    14     7     9    1
    15     9    10    1
    16    10    11    1
    17    11    12    1
    18    12    13   ar
    19    13    14   ar
    20    14    15   ar
    21    15    18    1
    22    18    19    1
    23    19    20   ar
    24    20    21   ar
    25    21    22   ar
    26    22    23   ar
    27    23    24   ar
    28    15    16   ar
    29    16    17   ar
    30     4     5   ar
    31     5     6   ar
    32    29    30    1
    33    30    31    1
    34    31    26    1
    35     6     1   ar
    36    17    12   ar
    37    24    19   ar
    38    35    36    1
    39     7     8    1
@<TRIPOS>MOLECULE
*****
 36 39 0 0 0
SMALL
GASTEIGER

@<TRIPOS>ATOM
      1 C         138.9108  139.8236  160.3109 C.ar    1  UNL1       -0.0061
      2 C         138.1262  140.5446  159.2550 C.ar    1  UNL1       -0.0017
      3 C         138.8091  141.5333  158.3572 C.ar    1  UNL1        0.0140
      4 C         140.2765  141.8011  158.5152 C.ar    1  UNL1        0.0446
      5 C         141.0610  141.0802  159.5710 C.ar    1  UNL1        0.0140
      6 C         140.3782  140.0914  160.4689 C.ar    1  UNL1       -0.0017
      7 N         140.9594  142.7899  157.6174 N.pl3   1  UNL1       -0.3326
      8 H         141.8908  142.6386  157.3368 H       1  UNL1        0.1468
      9 C         140.2231  144.0091  157.1470 C.3     1  UNL1        0.0874
     10 C         140.5760  145.3581  157.6998 C.3     1  UNL1        0.0275
     11 C         140.2610  145.6891  159.1285 C.3     1  UNL1        0.0494
     12 C         141.0686  145.0788  160.2354 C.ar    1  UNL1        0.0808
     13 C         140.5705  145.1401  161.6489 C.ar    1  UNL1        0.0213
     14 C         141.3781  144.5298  162.7559 C.ar    1  UNL1        0.0609
     15 C         142.6838  143.8581  162.4493 C.ar    1  UNL1        0.2483
     16 N         143.1819  143.7969  161.0357 N.ar    1  UNL1       -0.1102
     17 N         142.3743  144.4072  159.9288 N.ar    1  UNL1       -0.1495
     18 O         143.4914  143.2478  163.5562 O.3     1  UNL1       -0.4349
     19 C         143.4529  141.7656  163.7834 C.ar    1  UNL1        0.1472
     20 C         144.6884  141.0434  164.2327 C.ar    1  UNL1        0.0376
     21 C         144.6499  139.5612  164.4599 C.ar    1  UNL1        0.0031
     22 C         143.3759  138.8013  164.2378 C.ar    1  UNL1        0.0002
     23 C         142.1404  139.5235  163.7885 C.ar    1  UNL1        0.0031
     24 C         142.1789  141.0056  163.5613 C.ar    1  UNL1        0.0376
     25 C         138.2279  138.8349  161.2087 C.3     1  UNL1        0.0991
     26 C         138.5912  139.2276  165.6768 C.3     1  UNL1        0.0743
     27 C         138.1523  140.4024  164.8539 C.3     1  UNL1        0.0369
     28 C         138.0311  140.2715  163.3645 C.3     1  UNL1        0.0741
     29 N         138.3490  138.9658  162.6981 N.3     1  UNL1       -0.2689
     30 C         138.7880  137.7911  163.5210 C.3     1  UNL1        0.0741
     31 C         138.9091  137.9220  165.0103 C.3     1  UNL1        0.0369
     32 C         140.0166  140.1918  169.2529 C.3     1  UNL1        0.0946
     33 C         139.8954  140.0609  167.7635 C.2     1  UNL1        0.2229
     34 O         140.9575  140.6325  166.8716 O.2     1  UNL1       -0.2751
     35 N         138.7124  139.3586  167.1661 N.am    1  UNL1       -0.3059
     36 H         138.0154  138.9835  167.7515 H       1  UNL1        0.1494
@<TRIPOS>BOND
     1    32    33    1
     2    33    34    2
     3    33    35   am
     4    35    26    1
     5    26    27    1
     6    27    28    1
     7    28    29    1
     8    29    25    1
     9    25     1    1
    10     1     2   ar
    11     2     3   ar
    12     3     4   ar
    13     4     7    1
    14     7     9    1
    15     9    10    1
    16    10    11    1
    17    11    12    1
    18    12    13   ar
    19    13    14   ar
    20    14    15   ar
    21    15    18    1
    22    18    19    1
    23    19    20   ar
    24    20    21   ar
    25    21    22   ar
    26    22    23   ar
    27    23    24   ar
    28    15    16   ar
    29    16    17   ar
    30     4     5   ar
    31     5     6   ar
    32    29    30    1
    33    30    31    1
    34    31    26    1
    35     6     1   ar
    36    17    12   ar
    37    24    19   ar
    38    35    36    1
    39     7     8    1
