@<TRIPOS>MOLECULE
*****
 38 43 0 0 0
SMALL
GASTEIGER

@<TRIPOS>ATOM
      1 C         139.9882  144.5369  157.6915 C.3     1  UNL1        0.0666
      2 S         139.2227  143.2513  157.7970 S.3     1  UNL1       -0.0756
      3 C         139.5475  141.0044  160.9452 C.ar    1  UNL1        0.1669
      4 N         138.4083  141.8961  161.3418 N.ar    1  UNL1       -0.1282
      5 N         138.1481  142.8463  160.2108 N.ar    1  UNL1       -0.1221
      6 C         139.1263  142.5419  159.1151 C.ar    1  UNL1        0.1932
      7 N         139.9912  141.4036  159.5691 N.ar    1  UNL1       -0.2884
      8 C         141.1044  140.7747  158.7846 C.3     1  UNL1        0.1340
      9 C         138.0337  138.8636  167.2995 C.3     1  UNL1        0.0521
     10 C         138.5601  139.1243  165.9192 C.ar    1  UNL1        0.0593
     11 C         137.9685  140.2224  165.0859 C.ar    1  UNL1        0.0147
     12 C         138.4949  140.4830  163.7057 C.ar    1  UNL1        0.0028
     13 C         139.6128  139.6457  163.1587 C.ar    1  UNL1        0.0206
     14 C         140.1391  139.9064  161.7785 C.ar    1  UNL1        0.0374
     15 C         141.2570  139.0690  161.2316 C.ar    1  UNL1        0.0031
     16 C         141.8486  137.9710  162.0649 C.ar    1  UNL1        0.0016
     17 C         141.3223  137.7103  163.4451 C.ar    1  UNL1        0.0191
     18 C         140.2043  138.5476  163.9920 C.ar    1  UNL1        0.0810
     19 N         139.6780  138.2869  165.3723 N.ar    1  UNL1       -0.2497
     20 C         141.2210  144.7459  158.5203 C.3     1  UNL1        0.0294
     21 C         141.1348  145.4949  159.8170 C.3     1  UNL1        0.0730
     22 N         141.1469  144.7472  161.1173 N.3     1  UNL1       -0.2720
     23 C         142.1784  143.6645  161.2358 C.3     1  UNL1        0.0768
     24 C         142.4438  142.7482  162.3935 C.3     1  UNL1        0.0434
     25 C         141.7432  142.6883  163.7184 C.ar    1  UNL1       -0.0230
     26 C         142.3233  141.6200  164.5972 C.ar    1  UNL1        0.0178
     27 C         141.7644  141.3932  165.9706 C.ar    1  UNL1        0.1182
     28 N         142.1279  140.4220  167.0544 N.ar    1  UNL1       -0.2121
     29 C         141.2137  140.6633  168.2188 C.ar    1  UNL1        0.2052
     30 O         140.2851  141.7836  167.8547 O.2     1  UNL1       -0.4384
     31 C         140.6254  142.2347  166.4653 C.ar    1  UNL1        0.1640
     32 C         140.0454  143.3030  165.5865 C.ar    1  UNL1        0.0346
     33 C         140.6043  143.5298  164.2131 C.ar    1  UNL1       -0.0216
     34 C         139.8846  144.6391  163.5049 C.3     1  UNL1        0.0434
     35 C         140.1262  145.1808  162.1271 C.3     1  UNL1        0.0768
     36 C         141.2259  139.9155  169.5191 C.3     1  UNL1        0.0766
     37 C         140.0926  140.0779  170.4883 C.3     1  UNL1        0.0097
     38 C         142.3714  139.0053  169.8501 C.3     1  UNL1        0.0097
@<TRIPOS>BOND
     1     9    10    1
     2    10    11   ar
     3    11    12   ar
     4    12    13   ar
     5    13    14   ar
     6    14     3    1
     7     3     4   ar
     8     4     5   ar
     9     5     6   ar
    10     6     2    1
    11     2     1    1
    12     1    20    1
    13    20    21    1
    14    21    22    1
    15    22    23    1
    16    23    24    1
    17    24    25    1
    18    25    26   ar
    19    26    27   ar
    20    27    28   ar
    21    28    29   ar
    22    29    36    1
    23    36    37    1
    24    36    38    1
    25    29    30   ar
    26    30    31   ar
    27    31    32   ar
    28    32    33   ar
    29    33    34    1
    30    34    35    1
    31     6     7   ar
    32     7     8    1
    33    14    15   ar
    34    15    16   ar
    35    16    17   ar
    36    17    18   ar
    37    18    19   ar
    38    19    10   ar
    39    18    13   ar
    40     7     3   ar
    41    35    22    1
    42    33    25   ar
    43    31    27   ar
@<TRIPOS>MOLECULE
*****
 38 43 0 0 0
SMALL
GASTEIGER

@<TRIPOS>ATOM
      1 C         140.6173  144.4068  157.8082 C.3     1  UNL1        0.0666
      2 S         140.5749  142.9075  157.7915 S.3     1  UNL1       -0.0756
      3 C         140.7053  141.0604  161.2027 C.ar    1  UNL1        0.1669
      4 N         142.0971  140.8277  160.6937 N.ar    1  UNL1       -0.1282
      5 N         142.2176  141.4914  159.3539 N.ar    1  UNL1       -0.1221
      6 C         140.9004  142.1342  159.0349 C.ar    1  UNL1        0.1932
      7 N         139.9658  141.8678  160.1775 N.ar    1  UNL1       -0.2884
      8 C         138.5416  142.3280  160.2773 C.3     1  UNL1        0.1340
      9 C         143.7884  138.0445  166.5553 C.3     1  UNL1        0.0521
     10 C         142.8790  138.6763  165.5434 C.ar    1  UNL1        0.0593
     11 C         143.4337  139.1652  164.2383 C.ar    1  UNL1        0.0147
     12 C         142.5242  139.7969  163.2265 C.ar    1  UNL1        0.0028
     13 C         141.0601  139.9397  163.5197 C.ar    1  UNL1        0.0206
     14 C         140.1507  140.5715  162.5077 C.ar    1  UNL1        0.0374
     15 C         138.6866  140.7142  162.8010 C.ar    1  UNL1        0.0031
     16 C         138.1319  140.2253  164.1061 C.ar    1  UNL1        0.0016
     17 C         139.0413  139.5936  165.1179 C.ar    1  UNL1        0.0191
     18 C         140.5054  139.4508  164.8248 C.ar    1  UNL1        0.0810
     19 N         141.4148  138.8191  165.8367 N.ar    1  UNL1       -0.2497
     20 C         141.3381  145.1245  158.9108 C.3     1  UNL1        0.0294
     21 C         140.5763  145.6301  160.0999 C.3     1  UNL1        0.0730
     22 N         140.7521  144.9744  161.4375 N.3     1  UNL1       -0.2720
     23 C         139.5221  144.9012  162.2930 C.3     1  UNL1        0.0768
     24 C         139.3708  144.3140  163.6651 C.3     1  UNL1        0.0434
     25 C         140.4120  143.6552  164.5203 C.ar    1  UNL1       -0.0230
     26 C         139.8393  143.2045  165.8315 C.ar    1  UNL1        0.0178
     27 C         140.7163  142.5194  166.8372 C.ar    1  UNL1        0.1182
     28 N         140.4354  141.9682  168.2036 N.ar    1  UNL1       -0.2121
     29 C         141.7116  141.3931  168.7428 C.ar    1  UNL1        0.2052
     30 O         142.7811  141.5888  167.7095 O.2     1  UNL1       -0.4384
     31 C         142.1661  142.2849  166.5318 C.ar    1  UNL1        0.1640
     32 C         142.7388  142.7356  165.2207 C.ar    1  UNL1        0.0346
     33 C         141.8618  143.4207  164.2150 C.ar    1  UNL1       -0.0216
     34 C         142.6283  143.7872  162.9789 C.3     1  UNL1        0.0434
     35 C         142.1344  144.4786  161.7428 C.3     1  UNL1        0.0768
     36 C         141.8872  140.7374  170.0804 C.3     1  UNL1        0.0766
     37 C         142.6849  139.4723  170.1965 C.3     1  UNL1        0.0097
     38 C         141.2652  141.3466  171.3019 C.3     1  UNL1        0.0097
@<TRIPOS>BOND
     1     9    10    1
     2    10    11   ar
     3    11    12   ar
     4    12    13   ar
     5    13    14   ar
     6    14     3    1
     7     3     4   ar
     8     4     5   ar
     9     5     6   ar
    10     6     2    1
    11     2     1    1
    12     1    20    1
    13    20    21    1
    14    21    22    1
    15    22    23    1
    16    23    24    1
    17    24    25    1
    18    25    26   ar
    19    26    27   ar
    20    27    28   ar
    21    28    29   ar
    22    29    36    1
    23    36    37    1
    24    36    38    1
    25    29    30   ar
    26    30    31   ar
    27    31    32   ar
    28    32    33   ar
    29    33    34    1
    30    34    35    1
    31     6     7   ar
    32     7     8    1
    33    14    15   ar
    34    15    16   ar
    35    16    17   ar
    36    17    18   ar
    37    18    19   ar
    38    19    10   ar
    39    18    13   ar
    40     7     3   ar
    41    35    22    1
    42    33    25   ar
    43    31    27   ar
@<TRIPOS>MOLECULE
*****
 38 43 0 0 0
SMALL
GASTEIGER

@<TRIPOS>ATOM
      1 C         141.8740  139.5137  157.3310 C.3     1  UNL1        0.0666
      2 S         140.5658  140.2042  157.0829 S.3     1  UNL1       -0.0756
      3 C         138.5080  140.9840  160.2802 C.ar    1  UNL1        0.1669
      4 N         137.5503  140.1109  159.5249 N.ar    1  UNL1       -0.1282
      5 N         138.2046  139.7125  158.2353 N.ar    1  UNL1       -0.1221
      6 C         139.5667  140.3394  158.1935 C.ar    1  UNL1        0.1932
      7 N         139.7542  141.1252  159.4573 N.ar    1  UNL1       -0.2884
      8 C         140.9738  141.9138  159.8325 C.3     1  UNL1        0.1340
      9 C         138.3393  138.2063  166.5656 C.3     1  UNL1        0.0521
     10 C         138.3202  139.0563  165.3299 C.ar    1  UNL1        0.0593
     11 C         138.5656  138.4338  163.9874 C.ar    1  UNL1        0.0147
     12 C         138.5464  139.2839  162.7517 C.ar    1  UNL1        0.0028
     13 C         138.2818  140.7565  162.8584 C.ar    1  UNL1        0.0206
     14 C         138.2627  141.6065  161.6226 C.ar    1  UNL1        0.0374
     15 C         137.9981  143.0791  161.7294 C.ar    1  UNL1        0.0031
     16 C         137.7527  143.7017  163.0719 C.ar    1  UNL1        0.0016
     17 C         137.7719  142.8517  164.3075 C.ar    1  UNL1        0.0191
     18 C         138.0365  141.3791  164.2009 C.ar    1  UNL1        0.0810
     19 N         138.0556  140.5290  165.4366 N.ar    1  UNL1       -0.2497
     20 C         141.8982  138.1688  157.9951 C.3     1  UNL1        0.0294
     21 C         142.9790  137.8387  158.9814 C.3     1  UNL1        0.0730
     22 N         142.9654  138.4622  160.3456 N.3     1  UNL1       -0.2720
     23 C         142.1531  137.7432  161.3816 C.3     1  UNL1        0.0768
     24 C         141.9407  138.1067  162.8214 C.3     1  UNL1        0.0434
     25 C         142.4880  139.2788  163.5806 C.ar    1  UNL1       -0.0230
     26 C         142.0287  139.2696  165.0086 C.ar    1  UNL1        0.0178
     27 C         142.4644  140.3587  165.9436 C.ar    1  UNL1        0.1182
     28 N         142.1749  140.6123  167.3933 N.ar    1  UNL1       -0.2121
     29 C         142.8909  141.8672  167.7964 C.ar    1  UNL1        0.2052
     30 O         143.6229  142.3892  166.5958 O.2     1  UNL1       -0.4384
     31 C         143.3593  141.4569  165.4507 C.ar    1  UNL1        0.1640
     32 C         143.8186  141.4661  164.0227 C.ar    1  UNL1        0.0346
     33 C         143.3830  140.3771  163.0877 C.ar    1  UNL1       -0.0216
     34 C         143.9516  140.5744  161.7138 C.3     1  UNL1        0.0434
     35 C         143.7658  139.7221  160.4934 C.3     1  UNL1        0.0768
     36 C         142.8772  142.4906  169.1607 C.3     1  UNL1        0.0766
     37 C         141.5983  143.0370  169.7227 C.3     1  UNL1        0.0097
     38 C         144.1424  142.5676  169.9629 C.3     1  UNL1        0.0097
@<TRIPOS>BOND
     1     9    10    1
     2    10    11   ar
     3    11    12   ar
     4    12    13   ar
     5    13    14   ar
     6    14     3    1
     7     3     4   ar
     8     4     5   ar
     9     5     6   ar
    10     6     2    1
    11     2     1    1
    12     1    20    1
    13    20    21    1
    14    21    22    1
    15    22    23    1
    16    23    24    1
    17    24    25    1
    18    25    26   ar
    19    26    27   ar
    20    27    28   ar
    21    28    29   ar
    22    29    36    1
    23    36    37    1
    24    36    38    1
    25    29    30   ar
    26    30    31   ar
    27    31    32   ar
    28    32    33   ar
    29    33    34    1
    30    34    35    1
    31     6     7   ar
    32     7     8    1
    33    14    15   ar
    34    15    16   ar
    35    16    17   ar
    36    17    18   ar
    37    18    19   ar
    38    19    10   ar
    39    18    13   ar
    40     7     3   ar
    41    35    22    1
    42    33    25   ar
    43    31    27   ar
@<TRIPOS>MOLECULE
*****
 38 43 0 0 0
SMALL
GASTEIGER

@<TRIPOS>ATOM
      1 C         143.5778  141.1965  156.8972 C.3     1  UNL1        0.0666
      2 S         142.6541  140.0148  156.9143 S.3     1  UNL1       -0.0756
      3 C         141.5199  138.4813  160.2948 C.ar    1  UNL1        0.1669
      4 N         142.7232  137.6409  159.9844 N.ar    1  UNL1       -0.1282
      5 N         143.2944  138.1132  158.6803 N.ar    1  UNL1       -0.1221
      6 C         142.4443  139.2453  158.1847 C.ar    1  UNL1        0.1932
      7 N         141.3477  139.4728  159.1825 N.ar    1  UNL1       -0.2884
      8 C         140.2682  140.5098  159.0852 C.3     1  UNL1        0.1340
      9 C         142.9940  138.9618  166.9916 C.3     1  UNL1        0.0521
     10 C         142.4063  138.8095  165.6199 C.ar    1  UNL1        0.0593
     11 C         143.2831  138.9382  164.4097 C.ar    1  UNL1        0.0147
     12 C         142.6954  138.7859  163.0381 C.ar    1  UNL1        0.0028
     13 C         141.2308  138.5049  162.8766 C.ar    1  UNL1        0.0206
     14 C         140.6431  138.3526  161.5049 C.ar    1  UNL1        0.0374
     15 C         139.1786  138.0716  161.3435 C.ar    1  UNL1        0.0031
     16 C         138.3017  137.9430  162.5537 C.ar    1  UNL1        0.0016
     17 C         138.8894  138.0953  163.9253 C.ar    1  UNL1        0.0191
     18 C         140.3539  138.3762  164.0868 C.ar    1  UNL1        0.0810
     19 N         140.9416  138.5285  165.4585 N.ar    1  UNL1       -0.2497
     20 C         144.3801  141.5391  158.1176 C.3     1  UNL1        0.0294
     21 C         144.0847  142.7962  158.8807 C.3     1  UNL1        0.0730
     22 N         143.7206  142.7233  160.3340 N.3     1  UNL1       -0.2720
     23 C         142.2518  142.6756  160.6353 C.3     1  UNL1        0.0768
     24 C         141.5731  142.6005  161.9709 C.3     1  UNL1        0.0434
     25 C         142.1953  142.5548  163.3348 C.ar    1  UNL1       -0.0230
     26 C         141.1525  142.4827  164.4108 C.ar    1  UNL1        0.0178
     27 C         141.5644  142.4286  165.8521 C.ar    1  UNL1        0.1182
     28 N         140.7686  142.3538  167.1213 N.ar    1  UNL1       -0.2121
     29 C         141.7314  142.3255  168.2712 C.ar    1  UNL1        0.2052
     30 O         143.1223  142.3828  167.7126 O.2     1  UNL1       -0.4384
     31 C         143.0191  142.4465  166.2176 C.ar    1  UNL1        0.1640
     32 C         144.0619  142.5186  165.1417 C.ar    1  UNL1        0.0346
     33 C         143.6500  142.5727  163.7004 C.ar    1  UNL1       -0.0216
     34 C         144.8417  142.6409  162.7920 C.3     1  UNL1        0.0434
     35 C         144.8730  142.7079  161.2938 C.3     1  UNL1        0.0768
     36 C         141.3671  142.2526  169.7245 C.3     1  UNL1        0.0766
     37 C         140.1264  142.9334  170.2216 C.3     1  UNL1        0.0097
     38 C         142.2435  141.4991  170.6805 C.3     1  UNL1        0.0097
@<TRIPOS>BOND
     1     9    10    1
     2    10    11   ar
     3    11    12   ar
     4    12    13   ar
     5    13    14   ar
     6    14     3    1
     7     3     4   ar
     8     4     5   ar
     9     5     6   ar
    10     6     2    1
    11     2     1    1
    12     1    20    1
    13    20    21    1
    14    21    22    1
    15    22    23    1
    16    23    24    1
    17    24    25    1
    18    25    26   ar
    19    26    27   ar
    20    27    28   ar
    21    28    29   ar
    22    29    36    1
    23    36    37    1
    24    36    38    1
    25    29    30   ar
    26    30    31   ar
    27    31    32   ar
    28    32    33   ar
    29    33    34    1
    30    34    35    1
    31     6     7   ar
    32     7     8    1
    33    14    15   ar
    34    15    16   ar
    35    16    17   ar
    36    17    18   ar
    37    18    19   ar
    38    19    10   ar
    39    18    13   ar
    40     7     3   ar
    41    35    22    1
    42    33    25   ar
    43    31    27   ar
@<TRIPOS>MOLECULE
*****
 38 43 0 0 0
SMALL
GASTEIGER

@<TRIPOS>ATOM
      1 C         143.1898  140.3717  157.1276 C.3     1  UNL1        0.0666
      2 S         141.8251  139.7631  157.2588 S.3     1  UNL1       -0.0756
      3 C         139.9697  140.2726  160.6297 C.ar    1  UNL1        0.1669
      4 N         140.3441  138.8228  160.7211 N.ar    1  UNL1       -0.1282
      5 N         141.0847  138.4556  159.4695 N.ar    1  UNL1       -0.1221
      6 C         141.1680  139.6783  158.6045 C.ar    1  UNL1        0.1932
      7 N         140.4789  140.8012  159.3216 N.ar    1  UNL1       -0.2884
      8 C         140.3258  142.2061  158.8188 C.3     1  UNL1        0.1340
      9 C         137.9118  138.5525  166.9588 C.3     1  UNL1        0.0521
     10 C         138.2383  139.1784  165.6352 C.ar    1  UNL1        0.0593
     11 C         138.9900  138.3949  164.6002 C.ar    1  UNL1        0.0147
     12 C         139.3165  139.0208  163.2768 C.ar    1  UNL1        0.0028
     13 C         138.8914  140.4301  162.9882 C.ar    1  UNL1        0.0206
     14 C         139.2180  141.0559  161.6647 C.ar    1  UNL1        0.0374
     15 C         138.7929  142.4652  161.3763 C.ar    1  UNL1        0.0031
     16 C         138.0412  143.2486  162.4113 C.ar    1  UNL1        0.0016
     17 C         137.7147  142.6228  163.7347 C.ar    1  UNL1        0.0191
     18 C         138.1398  141.2135  164.0232 C.ar    1  UNL1        0.0810
     19 N         137.8132  140.5877  165.3468 N.ar    1  UNL1       -0.2497
     20 C         144.1020  140.4311  158.3170 C.3     1  UNL1        0.0294
     21 C         144.1583  141.6721  159.1577 C.3     1  UNL1        0.0730
     22 N         143.5795  141.6674  160.5415 N.3     1  UNL1       -0.2720
     23 C         142.9636  142.9583  160.9937 C.3     1  UNL1        0.0768
     24 C         142.3092  143.2731  162.3063 C.3     1  UNL1        0.0434
     25 C         142.1091  142.3748  163.4906 C.ar    1  UNL1       -0.0230
     26 C         141.4053  143.0883  164.6068 C.ar    1  UNL1        0.0178
     27 C         141.1065  142.3668  165.8875 C.ar    1  UNL1        0.1182
     28 N         140.4309  142.8058  167.1527 N.ar    1  UNL1       -0.2121
     29 C         140.4181  141.6422  168.0992 C.ar    1  UNL1        0.2052
     30 O         141.0858  140.4840  167.4190 O.2     1  UNL1       -0.4384
     31 C         141.5112  140.9318  166.0521 C.ar    1  UNL1        0.1640
     32 C         142.2149  140.2184  164.9359 C.ar    1  UNL1        0.0346
     33 C         142.5138  140.9398  163.6552 C.ar    1  UNL1       -0.0216
     34 C         143.2188  140.0488  162.6759 C.3     1  UNL1        0.0434
     35 C         143.6930  140.3726  161.2902 C.3     1  UNL1        0.0768
     36 C         139.8393  141.6376  169.4831 C.3     1  UNL1        0.0766
     37 C         140.0289  142.8255  170.3792 C.3     1  UNL1        0.0097
     38 C         139.0708  140.4453  169.9707 C.3     1  UNL1        0.0097
@<TRIPOS>BOND
     1     9    10    1
     2    10    11   ar
     3    11    12   ar
     4    12    13   ar
     5    13    14   ar
     6    14     3    1
     7     3     4   ar
     8     4     5   ar
     9     5     6   ar
    10     6     2    1
    11     2     1    1
    12     1    20    1
    13    20    21    1
    14    21    22    1
    15    22    23    1
    16    23    24    1
    17    24    25    1
    18    25    26   ar
    19    26    27   ar
    20    27    28   ar
    21    28    29   ar
    22    29    36    1
    23    36    37    1
    24    36    38    1
    25    29    30   ar
    26    30    31   ar
    27    31    32   ar
    28    32    33   ar
    29    33    34    1
    30    34    35    1
    31     6     7   ar
    32     7     8    1
    33    14    15   ar
    34    15    16   ar
    35    16    17   ar
    36    17    18   ar
    37    18    19   ar
    38    19    10   ar
    39    18    13   ar
    40     7     3   ar
    41    35    22    1
    42    33    25   ar
    43    31    27   ar
@<TRIPOS>MOLECULE
*****
 38 43 0 0 0
SMALL
GASTEIGER

@<TRIPOS>ATOM
      1 C         143.0095  140.7265  157.1183 C.3     1  UNL1        0.0666
      2 S         141.7179  139.9838  157.2913 S.3     1  UNL1       -0.0756
      3 C         139.9556  140.3939  160.7252 C.ar    1  UNL1        0.1669
      4 N         140.3451  138.9460  160.7703 N.ar    1  UNL1       -0.1282
      5 N         141.0526  138.6162  159.4895 N.ar    1  UNL1       -0.1221
      6 C         141.1004  139.8602  158.6527 C.ar    1  UNL1        0.1932
      7 N         140.4224  140.9588  159.4164 N.ar    1  UNL1       -0.2884
      8 C         140.2428  142.3740  158.9528 C.3     1  UNL1        0.1340
      9 C         137.8952  138.4287  166.9816 C.3     1  UNL1        0.0521
     10 C         138.2282  139.1077  165.6862 C.ar    1  UNL1        0.0593
     11 C         138.9566  138.3567  164.6113 C.ar    1  UNL1        0.0147
     12 C         139.2896  139.0358  163.3160 C.ar    1  UNL1        0.0028
     13 C         138.8941  140.4658  163.0954 C.ar    1  UNL1        0.0206
     14 C         139.2272  141.1448  161.8000 C.ar    1  UNL1        0.0374
     15 C         138.8317  142.5748  161.5796 C.ar    1  UNL1        0.0031
     16 C         138.1032  143.3258  162.6545 C.ar    1  UNL1        0.0016
     17 C         137.7703  142.6468  163.9498 C.ar    1  UNL1        0.0191
     18 C         138.1657  141.2168  164.1703 C.ar    1  UNL1        0.0810
     19 N         137.8327  140.5378  165.4658 N.ar    1  UNL1       -0.2497
     20 C         144.0371  140.7086  158.2109 C.3     1  UNL1        0.0294
     21 C         144.1911  141.8954  159.1152 C.3     1  UNL1        0.0730
     22 N         143.6109  141.8650  160.4980 N.3     1  UNL1       -0.2720
     23 C         143.6999  140.5489  161.2123 C.3     1  UNL1        0.0768
     24 C         143.2183  140.1975  162.5889 C.3     1  UNL1        0.0434
     25 C         142.5289  141.0752  163.5908 C.ar    1  UNL1       -0.0230
     26 C         142.2155  140.3258  164.8519 C.ar    1  UNL1        0.0178
     27 C         141.5239  141.0224  165.9861 C.ar    1  UNL1        0.1182
     28 N         141.0889  140.5466  167.3405 N.ar    1  UNL1       -0.2121
     29 C         140.4418  141.6986  168.0507 C.ar    1  UNL1        0.2052
     30 O         140.4769  142.8862  167.1353 O.2     1  UNL1       -0.4384
     31 C         141.1456  142.4684  165.8593 C.ar    1  UNL1        0.1640
     32 C         141.4590  143.2178  164.5982 C.ar    1  UNL1        0.0346
     33 C         142.1506  142.5212  163.4641 C.ar    1  UNL1       -0.0216
     34 C         142.3685  143.4466  162.3038 C.3     1  UNL1        0.0434
     35 C         143.0184  143.1544  160.9838 C.3     1  UNL1        0.0768
     36 C         139.8616  141.6680  169.4337 C.3     1  UNL1        0.0766
     37 C         139.9573  142.8788  170.3140 C.3     1  UNL1        0.0097
     38 C         139.1857  140.4269  169.9362 C.3     1  UNL1        0.0097
@<TRIPOS>BOND
     1     9    10    1
     2    10    11   ar
     3    11    12   ar
     4    12    13   ar
     5    13    14   ar
     6    14     3    1
     7     3     4   ar
     8     4     5   ar
     9     5     6   ar
    10     6     2    1
    11     2     1    1
    12     1    20    1
    13    20    21    1
    14    21    22    1
    15    22    23    1
    16    23    24    1
    17    24    25    1
    18    25    26   ar
    19    26    27   ar
    20    27    28   ar
    21    28    29   ar
    22    29    36    1
    23    36    37    1
    24    36    38    1
    25    29    30   ar
    26    30    31   ar
    27    31    32   ar
    28    32    33   ar
    29    33    34    1
    30    34    35    1
    31     6     7   ar
    32     7     8    1
    33    14    15   ar
    34    15    16   ar
    35    16    17   ar
    36    17    18   ar
    37    18    19   ar
    38    19    10   ar
    39    18    13   ar
    40     7     3   ar
    41    35    22    1
    42    33    25   ar
    43    31    27   ar
@<TRIPOS>MOLECULE
*****
 38 43 0 0 0
SMALL
GASTEIGER

@<TRIPOS>ATOM
      1 C         142.7482  142.2715  157.0611 C.3     1  UNL1        0.0666
      2 S         141.3317  142.5238  157.4852 S.3     1  UNL1       -0.0756
      3 C         140.3392  142.0537  161.2081 C.ar    1  UNL1        0.1669
      4 N         139.9449  140.7256  160.6330 N.ar    1  UNL1       -0.1282
      5 N         140.2687  140.7401  159.1684 N.ar    1  UNL1       -0.1221
      6 C         140.8631  142.0771  158.8383 C.ar    1  UNL1        0.1932
      7 N         140.9067  142.8889  160.0989 N.ar    1  UNL1       -0.2884
      8 C         141.4266  144.2901  160.2277 C.3     1  UNL1        0.1340
      9 C         138.0170  138.6135  166.6873 C.3     1  UNL1        0.0521
     10 C         138.5608  139.5783  165.6756 C.ar    1  UNL1        0.0593
     11 C         138.7081  139.1591  164.2430 C.ar    1  UNL1        0.0147
     12 C         139.2518  140.1240  163.2314 C.ar    1  UNL1        0.0028
     13 C         139.6482  141.5080  163.6523 C.ar    1  UNL1        0.0206
     14 C         140.1919  142.4729  162.6406 C.ar    1  UNL1        0.0374
     15 C         140.5883  143.8569  163.0618 C.ar    1  UNL1        0.0031
     16 C         140.4410  144.2761  164.4944 C.ar    1  UNL1        0.0016
     17 C         139.8973  143.3113  165.5060 C.ar    1  UNL1        0.0191
     18 C         139.5009  141.9273  165.0850 C.ar    1  UNL1        0.0810
     19 N         138.9572  140.9624  166.0967 N.ar    1  UNL1       -0.2497
     20 C         143.8794  142.9265  157.7969 C.3     1  UNL1        0.0294
     21 C         144.7793  142.1061  158.6727 C.3     1  UNL1        0.0730
     22 N         144.3638  141.7771  160.0760 N.3     1  UNL1       -0.2720
     23 C         144.5633  142.8676  161.0864 C.3     1  UNL1        0.0768
     24 C         144.2520  142.8514  162.5538 C.3     1  UNL1        0.0434
     25 C         143.6644  141.7408  163.3728 C.ar    1  UNL1       -0.0230
     26 C         143.5154  142.1403  164.8110 C.ar    1  UNL1        0.0178
     27 C         142.9448  141.1709  165.8034 C.ar    1  UNL1        0.1182
     28 N         142.6799  141.2809  167.2757 N.ar    1  UNL1       -0.2121
     29 C         142.0947  139.9802  167.7399 C.ar    1  UNL1        0.2052
     30 O         141.9979  139.0662  166.5545 O.2     1  UNL1       -0.4384
     31 C         142.5233  139.8021  165.3577 C.ar    1  UNL1        0.1640
     32 C         142.6724  139.4026  163.9195 C.ar    1  UNL1        0.0346
     33 C         143.2429  140.3719  162.9272 C.ar    1  UNL1       -0.0216
     34 C         143.3049  139.7757  161.5521 C.3     1  UNL1        0.0434
     35 C         143.8038  140.4012  160.2833 C.3     1  UNL1        0.0768
     36 C         141.6792  139.6512  169.1432 C.3     1  UNL1        0.0766
     37 C         142.5977  138.8670  170.0329 C.3     1  UNL1        0.0097
     38 C         140.3454  140.1064  169.6568 C.3     1  UNL1        0.0097
@<TRIPOS>BOND
     1     9    10    1
     2    10    11   ar
     3    11    12   ar
     4    12    13   ar
     5    13    14   ar
     6    14     3    1
     7     3     4   ar
     8     4     5   ar
     9     5     6   ar
    10     6     2    1
    11     2     1    1
    12     1    20    1
    13    20    21    1
    14    21    22    1
    15    22    23    1
    16    23    24    1
    17    24    25    1
    18    25    26   ar
    19    26    27   ar
    20    27    28   ar
    21    28    29   ar
    22    29    36    1
    23    36    37    1
    24    36    38    1
    25    29    30   ar
    26    30    31   ar
    27    31    32   ar
    28    32    33   ar
    29    33    34    1
    30    34    35    1
    31     6     7   ar
    32     7     8    1
    33    14    15   ar
    34    15    16   ar
    35    16    17   ar
    36    17    18   ar
    37    18    19   ar
    38    19    10   ar
    39    18    13   ar
    40     7     3   ar
    41    35    22    1
    42    33    25   ar
    43    31    27   ar
@<TRIPOS>MOLECULE
*****
 38 43 0 0 0
SMALL
GASTEIGER

@<TRIPOS>ATOM
      1 C         141.5994  139.2669  156.7719 C.3     1  UNL1        0.0666
      2 S         140.4401  138.4329  157.2306 S.3     1  UNL1       -0.0756
      3 C         138.7917  139.3192  160.6310 C.ar    1  UNL1        0.1669
      4 N         137.7898  139.8832  159.6674 N.ar    1  UNL1       -0.1282
      5 N         138.2855  139.6198  158.2764 N.ar    1  UNL1       -0.1221
      6 C         139.5936  138.8930  158.3802 C.ar    1  UNL1        0.1932
      7 N         139.9064  138.7073  159.8354 N.ar    1  UNL1       -0.2884
      8 C         141.1208  138.0287  160.3965 C.3     1  UNL1        0.1340
      9 C         137.8177  144.5891  164.9356 C.3     1  UNL1        0.0521
     10 C         138.0372  143.2818  164.2335 C.ar    1  UNL1        0.0593
     11 C         138.1332  143.2410  162.7371 C.ar    1  UNL1        0.0147
     12 C         138.3527  141.9337  162.0351 C.ar    1  UNL1        0.0028
     13 C         138.4761  140.6673  162.8294 C.ar    1  UNL1        0.0206
     14 C         138.6956  139.3600  162.1273 C.ar    1  UNL1        0.0374
     15 C         138.8190  138.0936  162.9216 C.ar    1  UNL1        0.0031
     16 C         138.7229  138.1344  164.4180 C.ar    1  UNL1        0.0016
     17 C         138.5035  139.4416  165.1200 C.ar    1  UNL1        0.0191
     18 C         138.3801  140.7081  164.3258 C.ar    1  UNL1        0.0810
     19 N         138.1606  142.0154  165.0279 N.ar    1  UNL1       -0.2497
     20 C         142.9467  139.0930  157.4081 C.3     1  UNL1        0.0294
     21 C         143.6224  140.2603  158.0645 C.3     1  UNL1        0.0730
     22 N         143.3702  140.5555  159.5133 N.3     1  UNL1       -0.2720
     23 C         144.1379  139.7165  160.4916 C.3     1  UNL1        0.0768
     24 C         144.1087  139.7655  161.9906 C.3     1  UNL1        0.0434
     25 C         143.3046  140.6653  162.8814 C.ar    1  UNL1       -0.0230
     26 C         143.5729  140.3843  164.3302 C.ar    1  UNL1        0.0178
     27 C         142.8678  141.1765  165.3910 C.ar    1  UNL1        0.1182
     28 N         142.9287  141.1256  166.8888 N.ar    1  UNL1       -0.2121
     29 C         141.9929  142.1673  167.4265 C.ar    1  UNL1        0.2052
     30 O         141.3536  142.8620  166.2610 O.2     1  UNL1       -0.4384
     31 C         141.8942  142.2497  165.0030 C.ar    1  UNL1        0.1640
     32 C         141.6259  142.5307  163.5541 C.ar    1  UNL1        0.0346
     33 C         142.3310  141.7385  162.4934 C.ar    1  UNL1       -0.0216
     34 C         141.9212  142.1769  161.1186 C.3     1  UNL1        0.0434
     35 C         142.3838  141.6503  159.7924 C.3     1  UNL1        0.0768
     36 C         141.7407  142.4624  168.8755 C.3     1  UNL1        0.0766
     37 C         142.8915  142.5549  169.8333 C.3     1  UNL1        0.0097
     38 C         140.3380  142.6649  169.3666 C.3     1  UNL1        0.0097
@<TRIPOS>BOND
     1     9    10    1
     2    10    11   ar
     3    11    12   ar
     4    12    13   ar
     5    13    14   ar
     6    14     3    1
     7     3     4   ar
     8     4     5   ar
     9     5     6   ar
    10     6     2    1
    11     2     1    1
    12     1    20    1
    13    20    21    1
    14    21    22    1
    15    22    23    1
    16    23    24    1
    17    24    25    1
    18    25    26   ar
    19    26    27   ar
    20    27    28   ar
    21    28    29   ar
    22    29    36    1
    23    36    37    1
    24    36    38    1
    25    29    30   ar
    26    30    31   ar
    27    31    32   ar
    28    32    33   ar
    29    33    34    1
    30    34    35    1
    31     6     7   ar
    32     7     8    1
    33    14    15   ar
    34    15    16   ar
    35    16    17   ar
    36    17    18   ar
    37    18    19   ar
    38    19    10   ar
    39    18    13   ar
    40     7     3   ar
    41    35    22    1
    42    33    25   ar
    43    31    27   ar
@<TRIPOS>MOLECULE
*****
 38 43 0 0 0
SMALL
GASTEIGER

@<TRIPOS>ATOM
      1 C         142.5313  138.9032  156.8789 C.3     1  UNL1        0.0666
      2 S         142.4304  140.3995  156.9057 S.3     1  UNL1       -0.0756
      3 C         141.9039  142.3152  160.2402 C.ar    1  UNL1        0.1669
      4 N         140.4862  142.0219  159.8474 N.ar    1  UNL1       -0.1282
      5 N         140.5109  141.2686  158.5505 N.ar    1  UNL1       -0.1221
      6 C         141.9439  141.0963  158.1417 C.ar    1  UNL1        0.1932
      7 N         142.8047  141.7432  159.1860 N.ar    1  UNL1       -0.2884
      8 C         144.3034  141.8068  159.1776 C.3     1  UNL1        0.1340
      9 C         138.2849  144.8091  165.5254 C.3     1  UNL1        0.0521
     10 C         139.2995  144.3696  164.5118 C.ar    1  UNL1        0.0593
     11 C         138.8599  143.6335  163.2809 C.ar    1  UNL1        0.0147
     12 C         139.8746  143.1941  162.2674 C.ar    1  UNL1        0.0028
     13 C         141.3288  143.4907  162.4845 C.ar    1  UNL1        0.0206
     14 C         142.3435  143.0513  161.4709 C.ar    1  UNL1        0.0374
     15 C         143.7977  143.3480  161.6882 C.ar    1  UNL1        0.0031
     16 C         144.2373  144.0841  162.9190 C.ar    1  UNL1        0.0016
     17 C         143.2227  144.5235  163.9325 C.ar    1  UNL1        0.0191
     18 C         141.7684  144.2269  163.7154 C.ar    1  UNL1        0.0810
     19 N         140.7538  144.6663  164.7290 N.ar    1  UNL1       -0.2497
     20 C         141.9879  138.0943  158.0194 C.3     1  UNL1        0.0294
     21 C         142.8749  137.7368  159.1749 C.3     1  UNL1        0.0730
     22 N         142.7013  138.4271  160.4953 N.3     1  UNL1       -0.2720
     23 C         143.9669  138.8568  161.1763 C.3     1  UNL1        0.0768
     24 C         144.1289  139.5620  162.4903 C.3     1  UNL1        0.0434
     25 C         143.0654  140.0115  163.4477 C.ar    1  UNL1       -0.0230
     26 C         143.6592  140.6817  164.6512 C.ar    1  UNL1        0.0178
     27 C         142.7649  141.2072  165.7347 C.ar    1  UNL1        0.1182
     28 N         143.0597  141.9083  167.0275 N.ar    1  UNL1       -0.2121
     29 C         141.7537  142.1971  167.7066 C.ar    1  UNL1        0.2052
     30 O         140.6518  141.6744  166.8334 O.2     1  UNL1       -0.4384
     31 C         141.2767  141.0626  165.6148 C.ar    1  UNL1        0.1640
     32 C         140.6828  140.3925  164.4113 C.ar    1  UNL1        0.0346
     33 C         141.5772  139.8670  163.3278 C.ar    1  UNL1       -0.0216
     34 C         140.7850  139.2372  162.2207 C.3     1  UNL1        0.0434
     35 C         141.2853  138.5964  160.9601 C.3     1  UNL1        0.0768
     36 C         141.5803  142.8874  169.0270 C.3     1  UNL1        0.0766
     37 C         142.6818  142.8475  170.0445 C.3     1  UNL1        0.0097
     38 C         140.3055  143.6176  169.3299 C.3     1  UNL1        0.0097
@<TRIPOS>BOND
     1     9    10    1
     2    10    11   ar
     3    11    12   ar
     4    12    13   ar
     5    13    14   ar
     6    14     3    1
     7     3     4   ar
     8     4     5   ar
     9     5     6   ar
    10     6     2    1
    11     2     1    1
    12     1    20    1
    13    20    21    1
    14    21    22    1
    15    22    23    1
    16    23    24    1
    17    24    25    1
    18    25    26   ar
    19    26    27   ar
    20    27    28   ar
    21    28    29   ar
    22    29    36    1
    23    36    37    1
    24    36    38    1
    25    29    30   ar
    26    30    31   ar
    27    31    32   ar
    28    32    33   ar
    29    33    34    1
    30    34    35    1
    31     6     7   ar
    32     7     8    1
    33    14    15   ar
    34    15    16   ar
    35    16    17   ar
    36    17    18   ar
    37    18    19   ar
    38    19    10   ar
    39    18    13   ar
    40     7     3   ar
    41    35    22    1
    42    33    25   ar
    43    31    27   ar
