@<TRIPOS>MOLECULE
*****
 32 36 0 0 0
SMALL
GASTEIGER

@<TRIPOS>ATOM
      1 C         140.7398  140.6555  164.0632 C.3     1  UNL1        0.0339
      2 C         141.6405  141.3082  165.0695 C.ar    1  UNL1        0.0095
      3 C         142.8368  142.0881  164.6107 C.ar    1  UNL1        0.0730
      4 C         143.7376  142.7409  165.6169 C.ar    1  UNL1        0.1531
      5 F         144.9340  143.5208  165.1581 F       1  UNL1       -0.2029
      6 C         143.4421  142.6137  167.0820 C.ar    1  UNL1        0.0323
      7 C         142.2457  141.8338  167.5408 C.ar    1  UNL1        0.0182
      8 C         141.9501  141.7066  169.0059 C.ar    1  UNL1        0.0108
      9 C         140.7538  140.9267  169.4647 C.ar    1  UNL1        0.1092
     10 C         139.8531  140.2740  168.4584 C.ar    1  UNL1        0.2651
     11 O         138.6567  139.4941  168.9173 O.2     1  UNL1       -0.2668
     12 N         140.1486  140.4012  166.9934 N.ar    1  UNL1       -0.2975
     13 C         141.3450  141.1811  166.5345 C.ar    1  UNL1        0.0597
     14 N         143.1325  142.2153  163.1456 N.pl3   1  UNL1       -0.3059
     15 C         144.1043  141.3796  162.3664 C.3     1  UNL1        0.0909
     16 C         144.0807  141.8483  160.9417 C.3     1  UNL1        0.0244
     17 C         143.0941  142.9737  160.8404 C.3     1  UNL1        0.0344
     18 C         142.5081  143.2005  162.2024 C.3     1  UNL1        0.0921
     19 C         142.7534  143.7381  159.5955 C.3     1  UNL1        0.0406
     20 N         142.0628  144.9248  160.1994 N.3     1  UNL1       -0.3231
     21 C         142.6525  144.0903  158.1410 C.3     1  UNL1        0.0156
     22 C         143.3257  142.8168  158.5594 C.3     1  UNL1        0.0156
     23 H         142.0500  144.8303  161.2149 H       1  UNL1        0.1188
     24 H         141.1056  144.9751  159.8505 H       1  UNL1        0.1188
     25 C         140.4582  140.7995  170.9298 C.2     1  UNL1        0.2474
     26 N         139.9679  139.4954  171.4856 N.am    1  UNL1       -0.3252
     27 O         140.6529  141.9765  171.8392 O.2     1  UNL1       -0.2702
     28 H         139.8401  138.7230  170.8887 H       1  UNL1        0.1453
     29 H         139.7739  139.4120  172.4471 H       1  UNL1        0.1453
     30 C         139.2478  139.7484  165.9871 C.3     1  UNL1        0.0885
     31 C         138.8280  138.5328  165.2151 C.3     1  UNL1        0.0246
     32 C         138.1076  139.8334  165.0163 C.3     1  UNL1        0.0246
@<TRIPOS>BOND
     1     1     2    1
     2     2     3   ar
     3     3    14    1
     4    14    15    1
     5    15    16    1
     6    16    17    1
     7    17    19    1
     8    19    20    1
     9    19    21    1
    10    21    22    1
    11    17    18    1
    12     3     4   ar
    13     4     5    1
    14     4     6   ar
    15     6     7   ar
    16     7     8   ar
    17     8     9   ar
    18     9    25    1
    19    25    26   am
    20    25    27    2
    21     9    10   ar
    22    10    11    2
    23    10    12   ar
    24    12    30    1
    25    30    31    1
    26    31    32    1
    27    12    13   ar
    28    13     2   ar
    29    18    14    1
    30    13     7   ar
    31    22    19    1
    32    32    30    1
    33    20    23    1
    34    20    24    1
    35    26    28    1
    36    26    29    1
@<TRIPOS>MOLECULE
*****
 32 36 0 0 0
SMALL
GASTEIGER

@<TRIPOS>ATOM
      1 C         141.6065  140.6812  164.0209 C.3     1  UNL1        0.0339
      2 C         140.9877  141.6393  164.9952 C.ar    1  UNL1        0.0095
      3 C         140.1818  142.8014  164.4953 C.ar    1  UNL1        0.0730
      4 C         139.5630  143.7595  165.4695 C.ar    1  UNL1        0.1531
      5 F         138.7570  144.9216  164.9695 F       1  UNL1       -0.2029
      6 C         139.7501  143.5554  166.9437 C.ar    1  UNL1        0.0323
      7 C         140.5560  142.3934  167.4437 C.ar    1  UNL1        0.0182
      8 C         140.7432  142.1893  168.9179 C.ar    1  UNL1        0.0108
      9 C         141.5491  141.0272  169.4179 C.ar    1  UNL1        0.1092
     10 C         142.1679  140.0691  168.4436 C.ar    1  UNL1        0.2651
     11 O         142.9739  138.9070  168.9436 O.2     1  UNL1       -0.2668
     12 N         141.9808  140.2731  166.9694 N.ar    1  UNL1       -0.2975
     13 C         141.1748  141.4353  166.4694 C.ar    1  UNL1        0.0597
     14 N         139.9946  143.0054  163.0210 N.pl3   1  UNL1       -0.3059
     15 C         139.0171  142.2768  162.1472 C.3     1  UNL1        0.0909
     16 C         139.1704  142.7949  160.7479 C.3     1  UNL1        0.0244
     17 C         140.2427  143.8439  160.7569 C.3     1  UNL1        0.0344
     18 C         140.7520  143.9739  162.1618 C.3     1  UNL1        0.0921
     19 C         140.7215  144.6255  159.5695 C.3     1  UNL1        0.0406
     20 N         141.7621  145.4840  160.2253 N.3     1  UNL1       -0.3231
     21 C         140.8389  145.1089  158.1545 C.3     1  UNL1        0.0156
     22 C         139.8471  144.0384  158.5015 C.3     1  UNL1        0.0156
     23 H         141.8039  145.2668  161.2210 H       1  UNL1        0.1188
     24 H         141.5192  146.4669  160.1016 H       1  UNL1        0.1188
     25 C         141.7363  140.8231  170.8922 C.2     1  UNL1        0.2474
     26 N         143.0145  140.2346  171.4115 N.am    1  UNL1       -0.3252
     27 O         140.6452  141.2076  171.8470 O.2     1  UNL1       -0.2702
     28 H         143.7306  139.9823  170.7848 H       1  UNL1        0.1453
     29 H         143.1373  140.1007  172.3791 H       1  UNL1        0.1453
     30 C         142.5996  139.3151  165.9952 C.3     1  UNL1        0.0885
     31 C         143.7620  138.8974  165.1442 C.3     1  UNL1        0.0246
     32 C         142.5088  138.0733  165.1587 C.3     1  UNL1        0.0246
@<TRIPOS>BOND
     1     1     2    1
     2     2     3   ar
     3     3    14    1
     4    14    15    1
     5    15    16    1
     6    16    17    1
     7    17    19    1
     8    19    20    1
     9    19    21    1
    10    21    22    1
    11    17    18    1
    12     3     4   ar
    13     4     5    1
    14     4     6   ar
    15     6     7   ar
    16     7     8   ar
    17     8     9   ar
    18     9    25    1
    19    25    26   am
    20    25    27    2
    21     9    10   ar
    22    10    11    2
    23    10    12   ar
    24    12    30    1
    25    30    31    1
    26    31    32    1
    27    12    13   ar
    28    13     2   ar
    29    18    14    1
    30    13     7   ar
    31    22    19    1
    32    32    30    1
    33    20    23    1
    34    20    24    1
    35    26    28    1
    36    26    29    1
@<TRIPOS>MOLECULE
*****
 32 36 0 0 0
SMALL
GASTEIGER

@<TRIPOS>ATOM
      1 C         138.5384  142.0108  164.9033 C.3     1  UNL1        0.0339
      2 C         138.6316  140.6584  164.2612 C.ar    1  UNL1        0.0095
      3 C         138.7503  139.4299  165.1137 C.ar    1  UNL1        0.0730
      4 C         138.8435  138.0775  164.4715 C.ar    1  UNL1        0.1531
      5 F         138.9621  136.8490  165.3241 F       1  UNL1       -0.2029
      6 C         138.8181  137.9536  162.9769 C.ar    1  UNL1        0.0323
      7 C         138.6994  139.1821  162.1244 C.ar    1  UNL1        0.0182
      8 C         138.6740  139.0582  160.6297 C.ar    1  UNL1        0.0108
      9 C         138.5554  140.2866  159.7772 C.ar    1  UNL1        0.1092
     10 C         138.4621  141.6390  160.4194 C.ar    1  UNL1        0.2651
     11 O         138.3435  142.8675  159.5668 O.2     1  UNL1       -0.2668
     12 N         138.4876  141.7630  161.9140 N.ar    1  UNL1       -0.2975
     13 C         138.6062  140.5345  162.7666 C.ar    1  UNL1        0.0597
     14 N         138.7757  139.5538  166.6084 N.pl3   1  UNL1       -0.3059
     15 C         137.7633  138.9846  167.5576 C.3     1  UNL1        0.0909
     16 C         138.1798  139.3476  168.9521 C.3     1  UNL1        0.0244
     17 C         139.4497  140.1412  168.8647 C.3     1  UNL1        0.0344
     18 C         139.8180  140.2686  167.4162 C.3     1  UNL1        0.0921
     19 C         140.2167  140.7079  170.0226 C.3     1  UNL1        0.0406
     20 N         139.8930  139.6879  171.0737 N.3     1  UNL1       -0.3231
     21 C         141.0961  141.6288  170.8154 C.3     1  UNL1        0.0156
     22 C         140.8068  141.9247  169.3736 C.3     1  UNL1        0.0156
     23 H         139.2837  138.9725  170.6769 H       1  UNL1        0.1188
     24 H         139.4198  140.1427  171.8545 H       1  UNL1        0.1188
     25 C         138.5299  140.1627  158.2825 C.2     1  UNL1        0.2474
     26 N         137.3207  140.6060  157.5137 N.am    1  UNL1       -0.3252
     27 O         139.7138  139.5956  157.5567 O.2     1  UNL1       -0.2702
     28 H         136.5436  140.9782  157.9901 H       1  UNL1        0.1453
     29 H         137.3040  140.5246  156.5327 H       1  UNL1        0.1453
     30 C         138.3943  143.1153  162.5561 C.3     1  UNL1        0.0885
     31 C         137.5778  144.1861  163.2169 C.3     1  UNL1        0.0246
     32 C         139.0494  144.3869  163.0076 C.3     1  UNL1        0.0246
@<TRIPOS>BOND
     1     1     2    1
     2     2     3   ar
     3     3    14    1
     4    14    15    1
     5    15    16    1
     6    16    17    1
     7    17    19    1
     8    19    20    1
     9    19    21    1
    10    21    22    1
    11    17    18    1
    12     3     4   ar
    13     4     5    1
    14     4     6   ar
    15     6     7   ar
    16     7     8   ar
    17     8     9   ar
    18     9    25    1
    19    25    26   am
    20    25    27    2
    21     9    10   ar
    22    10    11    2
    23    10    12   ar
    24    12    30    1
    25    30    31    1
    26    31    32    1
    27    12    13   ar
    28    13     2   ar
    29    18    14    1
    30    13     7   ar
    31    22    19    1
    32    32    30    1
    33    20    23    1
    34    20    24    1
    35    26    28    1
    36    26    29    1
@<TRIPOS>MOLECULE
*****
 32 36 0 0 0
SMALL
GASTEIGER

@<TRIPOS>ATOM
      1 C         141.2934  141.2599  163.3376 C.3     1  UNL1        0.0339
      2 C         140.4256  140.2712  164.0581 C.ar    1  UNL1        0.0095
      3 C         139.7946  139.1381  163.3046 C.ar    1  UNL1        0.0730
      4 C         138.9267  138.1493  164.0251 C.ar    1  UNL1        0.1531
      5 F         138.2957  137.0162  163.2714 F       1  UNL1       -0.2029
      6 C         138.6898  138.2936  165.4992 C.ar    1  UNL1        0.0323
      7 C         139.3208  139.4267  166.2528 C.ar    1  UNL1        0.0182
      8 C         139.0840  139.5711  167.7269 C.ar    1  UNL1        0.0108
      9 C         139.7150  140.7042  168.4805 C.ar    1  UNL1        0.1092
     10 C         140.5828  141.6929  167.7600 C.ar    1  UNL1        0.2651
     11 O         141.2139  142.8261  168.5137 O.2     1  UNL1       -0.2668
     12 N         140.8197  141.5486  166.2859 N.ar    1  UNL1       -0.2975
     13 C         140.1887  140.4155  165.5322 C.ar    1  UNL1        0.0597
     14 N         140.0314  138.9937  161.8304 N.pl3   1  UNL1       -0.3059
     15 C         139.0270  139.2518  160.7466 C.3     1  UNL1        0.0909
     16 C         139.6890  138.9835  159.4276 C.3     1  UNL1        0.0244
     17 C         141.1026  138.5597  159.6962 C.3     1  UNL1        0.0344
     18 C         141.3142  138.5660  161.1812 C.3     1  UNL1        0.0921
     19 C         142.1251  138.1937  158.6615 C.3     1  UNL1        0.0406
     20 N         143.3739  138.2787  159.4879 N.3     1  UNL1       -0.3231
     21 C         142.7138  137.7983  157.3398 C.3     1  UNL1        0.0156
     22 C         141.2313  137.9816  157.4757 C.3     1  UNL1        0.0156
     23 H         143.1326  138.5458  160.4423 H       1  UNL1        0.1188
     24 H         143.9999  138.9774  159.0873 H       1  UNL1        0.1188
     25 C         139.4781  140.8485  169.9547 C.2     1  UNL1        0.2474
     26 N         139.4045  142.2134  170.5724 N.am    1  UNL1       -0.3252
     27 O         139.3149  139.6279  170.8111 O.2     1  UNL1       -0.2702
     28 H         139.5116  143.0146  170.0102 H       1  UNL1        0.1453
     29 H         139.2490  142.3082  171.5399 H       1  UNL1        0.1453
     30 C         141.6876  142.5374  165.5654 C.3     1  UNL1        0.0885
     31 C         141.8284  143.7691  164.7210 C.3     1  UNL1        0.0246
     32 C         143.0499  143.0182  165.1618 C.3     1  UNL1        0.0246
@<TRIPOS>BOND
     1     1     2    1
     2     2     3   ar
     3     3    14    1
     4    14    15    1
     5    15    16    1
     6    16    17    1
     7    17    19    1
     8    19    20    1
     9    19    21    1
    10    21    22    1
    11    17    18    1
    12     3     4   ar
    13     4     5    1
    14     4     6   ar
    15     6     7   ar
    16     7     8   ar
    17     8     9   ar
    18     9    25    1
    19    25    26   am
    20    25    27    2
    21     9    10   ar
    22    10    11    2
    23    10    12   ar
    24    12    30    1
    25    30    31    1
    26    31    32    1
    27    12    13   ar
    28    13     2   ar
    29    18    14    1
    30    13     7   ar
    31    22    19    1
    32    32    30    1
    33    20    23    1
    34    20    24    1
    35    26    28    1
    36    26    29    1
@<TRIPOS>MOLECULE
*****
 32 36 0 0 0
SMALL
GASTEIGER

@<TRIPOS>ATOM
      1 C         141.9355  141.0301  163.5493 C.3     1  UNL1        0.0339
      2 C         140.8341  142.0015  163.2441 C.ar    1  UNL1        0.0095
      3 C         139.6316  142.0770  164.1375 C.ar    1  UNL1        0.0730
      4 C         138.5301  143.0484  163.8322 C.ar    1  UNL1        0.1531
      5 F         137.3276  143.1239  164.7258 F       1  UNL1       -0.2029
      6 C         138.6312  143.9444  162.6335 C.ar    1  UNL1        0.0323
      7 C         139.8337  143.8689  161.7401 C.ar    1  UNL1        0.0182
      8 C         139.9348  144.7649  160.5413 C.ar    1  UNL1        0.0108
      9 C         141.1372  144.6895  159.6478 C.ar    1  UNL1        0.1092
     10 C         142.2387  143.7180  159.9531 C.ar    1  UNL1        0.2651
     11 O         143.4412  143.6426  159.0595 O.2     1  UNL1       -0.2668
     12 N         142.1376  142.8221  161.1518 N.ar    1  UNL1       -0.2975
     13 C         140.9351  142.8975  162.0453 C.ar    1  UNL1        0.0597
     14 N         139.5305  141.1810  165.3363 N.pl3   1  UNL1       -0.3059
     15 C         138.6672  139.9600  165.4541 C.3     1  UNL1        0.0909
     16 C         138.8780  139.3731  166.8183 C.3     1  UNL1        0.0244
     17 C         139.8717  140.2314  167.5437 C.3     1  UNL1        0.0344
     18 C         140.2749  141.3487  166.6277 C.3     1  UNL1        0.0921
     19 C         140.3739  140.0110  168.9398 C.3     1  UNL1        0.0406
     20 N         139.0740  140.0169  169.6882 N.3     1  UNL1       -0.3231
     21 C         141.3276  139.7886  170.0760 C.3     1  UNL1        0.0156
     22 C         141.8483  139.9286  168.6762 C.3     1  UNL1        0.0156
     23 H         138.3055  140.1624  169.0335 H       1  UNL1        0.1188
     24 H         139.0814  140.7696  170.3765 H       1  UNL1        0.1188
     25 C         141.2383  145.5855  158.4490 C.2     1  UNL1        0.2474
     26 N         142.5786  146.0842  157.9963 N.am    1  UNL1       -0.3252
     27 O         139.9991  145.9827  157.7030 O.2     1  UNL1       -0.2702
     28 H         143.3919  145.8234  158.4860 H       1  UNL1        0.1453
     29 H         142.6449  146.6722  157.2095 H       1  UNL1        0.1453
     30 C         143.2391  141.8507  161.4571 C.3     1  UNL1        0.0885
     31 C         144.5546  141.5409  162.1078 C.3     1  UNL1        0.0246
     32 C         143.8312  140.4779  161.3351 C.3     1  UNL1        0.0246
@<TRIPOS>BOND
     1     1     2    1
     2     2     3   ar
     3     3    14    1
     4    14    15    1
     5    15    16    1
     6    16    17    1
     7    17    19    1
     8    19    20    1
     9    19    21    1
    10    21    22    1
    11    17    18    1
    12     3     4   ar
    13     4     5    1
    14     4     6   ar
    15     6     7   ar
    16     7     8   ar
    17     8     9   ar
    18     9    25    1
    19    25    26   am
    20    25    27    2
    21     9    10   ar
    22    10    11    2
    23    10    12   ar
    24    12    30    1
    25    30    31    1
    26    31    32    1
    27    12    13   ar
    28    13     2   ar
    29    18    14    1
    30    13     7   ar
    31    22    19    1
    32    32    30    1
    33    20    23    1
    34    20    24    1
    35    26    28    1
    36    26    29    1
@<TRIPOS>MOLECULE
*****
 32 36 0 0 0
SMALL
GASTEIGER

@<TRIPOS>ATOM
      1 C         141.0355  141.4431  163.2538 C.3     1  UNL1        0.0339
      2 C         140.2513  140.4014  163.9955 C.ar    1  UNL1        0.0095
      3 C         139.6478  139.2466  163.2524 C.ar    1  UNL1        0.0730
      4 C         138.8637  138.2050  163.9941 C.ar    1  UNL1        0.1531
      5 F         138.2602  137.0501  163.2509 F       1  UNL1       -0.2029
      6 C         138.6829  138.3182  165.4788 C.ar    1  UNL1        0.0323
      7 C         139.2864  139.4730  166.2219 C.ar    1  UNL1        0.0182
      8 C         139.1057  139.5862  167.7067 C.ar    1  UNL1        0.0108
      9 C         139.7091  140.7411  168.4497 C.ar    1  UNL1        0.1092
     10 C         140.4933  141.7827  167.7081 C.ar    1  UNL1        0.2651
     11 O         141.0968  142.9375  168.4512 O.2     1  UNL1       -0.2668
     12 N         140.6740  141.6695  166.2233 N.ar    1  UNL1       -0.2975
     13 C         140.0706  140.5146  165.4802 C.ar    1  UNL1        0.0597
     14 N         139.8286  139.1334  161.7676 N.pl3   1  UNL1       -0.3059
     15 C         140.9177  138.3762  161.0672 C.3     1  UNL1        0.0909
     16 C         140.7142  138.5323  159.5893 C.3     1  UNL1        0.0244
     17 C         139.4992  139.3859  159.3763 C.3     1  UNL1        0.0344
     18 C         138.9519  139.7574  160.7226 C.3     1  UNL1        0.0921
     19 C         138.9313  139.7961  158.0499 C.3     1  UNL1        0.0406
     20 N         139.2922  138.5936  157.2291 N.3     1  UNL1       -0.3231
     21 C         138.2381  140.6238  157.0086 C.3     1  UNL1        0.0156
     22 C         138.3733  141.1409  158.4102 C.3     1  UNL1        0.0156
     23 H         139.7845  137.9181  157.8137 H       1  UNL1        0.1188
     24 H         139.8948  138.8776  156.4566 H       1  UNL1        0.1188
     25 C         139.5284  140.8543  169.9346 C.2     1  UNL1        0.2474
     26 N         139.3972  142.2051  170.5733 N.am    1  UNL1       -0.3252
     27 O         139.4789  139.6166  170.7806 O.2     1  UNL1       -0.2702
     28 H         139.4297  143.0174  170.0180 H       1  UNL1        0.1453
     29 H         139.2786  142.2794  171.5478 H       1  UNL1        0.1453
     30 C         141.4582  142.7111  165.4817 C.3     1  UNL1        0.0885
     31 C         141.4995  143.9620  164.6549 C.3     1  UNL1        0.0246
     32 C         142.7751  143.2644  165.0239 C.3     1  UNL1        0.0246
@<TRIPOS>BOND
     1     1     2    1
     2     2     3   ar
     3     3    14    1
     4    14    15    1
     5    15    16    1
     6    16    17    1
     7    17    19    1
     8    19    20    1
     9    19    21    1
    10    21    22    1
    11    17    18    1
    12     3     4   ar
    13     4     5    1
    14     4     6   ar
    15     6     7   ar
    16     7     8   ar
    17     8     9   ar
    18     9    25    1
    19    25    26   am
    20    25    27    2
    21     9    10   ar
    22    10    11    2
    23    10    12   ar
    24    12    30    1
    25    30    31    1
    26    31    32    1
    27    12    13   ar
    28    13     2   ar
    29    18    14    1
    30    13     7   ar
    31    22    19    1
    32    32    30    1
    33    20    23    1
    34    20    24    1
    35    26    28    1
    36    26    29    1
@<TRIPOS>MOLECULE
*****
 32 36 0 0 0
SMALL
GASTEIGER

@<TRIPOS>ATOM
      1 C         141.7377  140.6731  163.9755 C.3     1  UNL1        0.0339
      2 C         141.0352  141.7310  164.7739 C.ar    1  UNL1        0.0095
      3 C         140.2080  142.7706  164.0776 C.ar    1  UNL1        0.0730
      4 C         139.5055  143.8285  164.8759 C.ar    1  UNL1        0.1531
      5 F         138.6781  144.8680  164.1795 F       1  UNL1       -0.2029
      6 C         139.6302  143.8468  166.3706 C.ar    1  UNL1        0.0323
      7 C         140.4575  142.8073  167.0669 C.ar    1  UNL1        0.0182
      8 C         140.5824  142.8256  168.5616 C.ar    1  UNL1        0.0108
      9 C         141.4096  141.7860  169.2579 C.ar    1  UNL1        0.1092
     10 C         142.1121  140.7281  168.4596 C.ar    1  UNL1        0.2651
     11 O         142.9395  139.6886  169.1560 O.2     1  UNL1       -0.2668
     12 N         141.9874  140.7098  166.9649 N.ar    1  UNL1       -0.2975
     13 C         141.1600  141.7494  166.2685 C.ar    1  UNL1        0.0597
     14 N         140.0831  142.7522  162.5828 N.pl3   1  UNL1       -0.3059
     15 C         140.9039  143.5576  161.6196 C.3     1  UNL1        0.0909
     16 C         140.4437  143.2285  160.2304 C.3     1  UNL1        0.0244
     17 C         139.3385  142.2197  160.3351 C.3     1  UNL1        0.0344
     18 C         139.1157  141.9254  161.7889 C.3     1  UNL1        0.0921
     19 C         138.5879  141.6120  159.1873 C.3     1  UNL1        0.0406
     20 N         138.5356  142.7884  158.2582 N.3     1  UNL1       -0.3231
     21 C         137.8555  140.5957  158.3623 C.3     1  UNL1        0.0156
     22 C         138.3795  140.2245  159.7179 C.3     1  UNL1        0.0156
     23 H         139.0065  143.5836  158.6898 H       1  UNL1        0.1188
     24 H         137.5627  143.0303  158.0704 H       1  UNL1        0.1188
     25 C         141.5345  141.8044  170.7527 C.2     1  UNL1        0.2474
     26 N         142.5708  142.6682  171.4082 N.am    1  UNL1       -0.3252
     27 O         140.6229  140.9589  171.5918 O.2     1  UNL1       -0.2702
     28 H         143.1691  143.2231  170.8574 H       1  UNL1        0.1453
     29 H         142.6527  142.6802  172.3892 H       1  UNL1        0.1453
     30 C         142.6899  139.6519  166.1666 C.3     1  UNL1        0.0885
     31 C         143.8934  139.1862  165.4020 C.3     1  UNL1        0.0246
     32 C         142.7031  138.2853  165.5485 C.3     1  UNL1        0.0246
@<TRIPOS>BOND
     1     1     2    1
     2     2     3   ar
     3     3    14    1
     4    14    15    1
     5    15    16    1
     6    16    17    1
     7    17    19    1
     8    19    20    1
     9    19    21    1
    10    21    22    1
    11    17    18    1
    12     3     4   ar
    13     4     5    1
    14     4     6   ar
    15     6     7   ar
    16     7     8   ar
    17     8     9   ar
    18     9    25    1
    19    25    26   am
    20    25    27    2
    21     9    10   ar
    22    10    11    2
    23    10    12   ar
    24    12    30    1
    25    30    31    1
    26    31    32    1
    27    12    13   ar
    28    13     2   ar
    29    18    14    1
    30    13     7   ar
    31    22    19    1
    32    32    30    1
    33    20    23    1
    34    20    24    1
    35    26    28    1
    36    26    29    1
@<TRIPOS>MOLECULE
*****
 32 36 0 0 0
SMALL
GASTEIGER

@<TRIPOS>ATOM
      1 C         140.5282  142.5157  164.6988 C.3     1  UNL1        0.0339
      2 C         141.8062  142.3114  163.9405 C.ar    1  UNL1        0.0095
      3 C         142.9559  141.5972  164.5869 C.ar    1  UNL1        0.0730
      4 C         144.2339  141.3928  163.8285 C.ar    1  UNL1        0.1531
      5 F         145.3836  140.6785  164.4750 F       1  UNL1       -0.2029
      6 C         144.3621  141.9028  162.4238 C.ar    1  UNL1        0.0323
      7 C         143.2124  142.6170  161.7773 C.ar    1  UNL1        0.0182
      8 C         143.3405  143.1270  160.3725 C.ar    1  UNL1        0.0108
      9 C         142.1908  143.8413  159.7260 C.ar    1  UNL1        0.1092
     10 C         140.9129  144.0456  160.4844 C.ar    1  UNL1        0.2651
     11 O         139.7631  144.7599  159.8379 O.2     1  UNL1       -0.2668
     12 N         140.7847  143.5357  161.8892 N.ar    1  UNL1       -0.2975
     13 C         141.9344  142.8214  162.5357 C.ar    1  UNL1        0.0597
     14 N         142.8277  141.0872  165.9918 N.pl3   1  UNL1       -0.3059
     15 C         142.7069  139.6488  166.4000 C.3     1  UNL1        0.0909
     16 C         142.6024  139.5986  167.8955 C.3     1  UNL1        0.0244
     17 C         142.6586  141.0060  168.4115 C.3     1  UNL1        0.0344
     18 C         142.7979  141.9259  167.2350 C.3     1  UNL1        0.0921
     19 C         142.5880  141.4206  169.8514 C.3     1  UNL1        0.0406
     20 N         143.4177  140.3379  170.4752 N.3     1  UNL1       -0.3231
     21 C         142.2292  142.2112  171.0745 C.3     1  UNL1        0.0156
     22 C         141.7337  142.6473  169.7275 C.3     1  UNL1        0.0156
     23 H         143.7456  139.7002  169.7498 H       1  UNL1        0.1188
     24 H         142.8528  139.8230  171.1505 H       1  UNL1        0.1188
     25 C         142.3190  144.3513  158.3212 C.2     1  UNL1        0.2474
     26 N         142.1839  145.8186  158.0407 N.am    1  UNL1       -0.3252
     27 O         142.5823  143.3939  157.1969 O.2     1  UNL1       -0.2702
     28 H         142.0111  146.4470  158.7786 H       1  UNL1        0.1453
     29 H         142.2680  146.1533  157.1187 H       1  UNL1        0.1453
     30 C         139.5067  143.7400  162.6475 C.3     1  UNL1        0.0885
     31 C         138.6761  144.5488  163.5993 C.3     1  UNL1        0.0246
     32 C         138.1239  143.2851  163.0093 C.3     1  UNL1        0.0246
@<TRIPOS>BOND
     1     1     2    1
     2     2     3   ar
     3     3    14    1
     4    14    15    1
     5    15    16    1
     6    16    17    1
     7    17    19    1
     8    19    20    1
     9    19    21    1
    10    21    22    1
    11    17    18    1
    12     3     4   ar
    13     4     5    1
    14     4     6   ar
    15     6     7   ar
    16     7     8   ar
    17     8     9   ar
    18     9    25    1
    19    25    26   am
    20    25    27    2
    21     9    10   ar
    22    10    11    2
    23    10    12   ar
    24    12    30    1
    25    30    31    1
    26    31    32    1
    27    12    13   ar
    28    13     2   ar
    29    18    14    1
    30    13     7   ar
    31    22    19    1
    32    32    30    1
    33    20    23    1
    34    20    24    1
    35    26    28    1
    36    26    29    1
@<TRIPOS>MOLECULE
*****
 32 36 0 0 0
SMALL
GASTEIGER

@<TRIPOS>ATOM
      1 C         140.4345  139.4549  164.1490 C.3     1  UNL1        0.0339
      2 C         141.8077  139.4870  163.5463 C.ar    1  UNL1        0.0095
      3 C         142.9963  139.8035  164.4047 C.ar    1  UNL1        0.0730
      4 C         144.3696  139.8356  163.8019 C.ar    1  UNL1        0.1531
      5 F         145.5582  140.1522  164.6604 F       1  UNL1       -0.2029
      6 C         144.5541  139.5512  162.3408 C.ar    1  UNL1        0.0323
      7 C         143.3655  139.2347  161.4824 C.ar    1  UNL1        0.0182
      8 C         143.5500  138.9502  160.0212 C.ar    1  UNL1        0.0108
      9 C         142.3614  138.6337  159.1628 C.ar    1  UNL1        0.1092
     10 C         140.9882  138.6016  159.7655 C.ar    1  UNL1        0.2651
     11 O         139.7995  138.2850  158.9070 O.2     1  UNL1       -0.2668
     12 N         140.8036  138.8860  161.2266 N.ar    1  UNL1       -0.2975
     13 C         141.9923  139.2026  162.0851 C.ar    1  UNL1        0.0597
     14 N         142.8118  140.0880  165.8659 N.pl3   1  UNL1       -0.3059
     15 C         142.8168  139.0720  166.9694 C.3     1  UNL1        0.0909
     16 C         142.5980  139.7944  168.2656 C.3     1  UNL1        0.0244
     17 C         142.4577  141.2569  167.9632 C.3     1  UNL1        0.0344
     18 C         142.5899  141.4384  166.4801 C.3     1  UNL1        0.0921
     19 C         142.2260  142.3467  168.9676 C.3     1  UNL1        0.0406
     20 N         143.6448  142.6812  169.3209 N.3     1  UNL1       -0.3231
     21 C         141.5015  143.3202  169.8492 C.3     1  UNL1        0.0156
     22 C         140.7266  142.3905  168.9630 C.3     1  UNL1        0.0156
     23 H         144.2777  142.0855  168.7871 H       1  UNL1        0.1188
     24 H         143.7924  142.5265  170.3183 H       1  UNL1        0.1188
     25 C         142.5459  138.3492  157.7015 C.2     1  UNL1        0.2474
     26 N         141.6387  137.3780  157.0061 N.am    1  UNL1       -0.3252
     27 O         143.6378  139.0359  156.9358 O.2     1  UNL1       -0.2702
     28 H         140.9221  136.9273  157.5087 H       1  UNL1        0.1453
     29 H         141.7598  137.1913  156.0471 H       1  UNL1        0.1453
     30 C         139.4304  138.8539  161.8294 C.3     1  UNL1        0.0885
     31 C         138.3099  138.0885  162.4684 C.3     1  UNL1        0.0246
     32 C         138.1726  139.5637  162.2342 C.3     1  UNL1        0.0246
@<TRIPOS>BOND
     1     1     2    1
     2     2     3   ar
     3     3    14    1
     4    14    15    1
     5    15    16    1
     6    16    17    1
     7    17    19    1
     8    19    20    1
     9    19    21    1
    10    21    22    1
    11    17    18    1
    12     3     4   ar
    13     4     5    1
    14     4     6   ar
    15     6     7   ar
    16     7     8   ar
    17     8     9   ar
    18     9    25    1
    19    25    26   am
    20    25    27    2
    21     9    10   ar
    22    10    11    2
    23    10    12   ar
    24    12    30    1
    25    30    31    1
    26    31    32    1
    27    12    13   ar
    28    13     2   ar
    29    18    14    1
    30    13     7   ar
    31    22    19    1
    32    32    30    1
    33    20    23    1
    34    20    24    1
    35    26    28    1
    36    26    29    1
