@<TRIPOS>MOLECULE
*****
 29 32 0 0 0
SMALL
GASTEIGER

@<TRIPOS>ATOM
      1 C         141.4564  142.0986  166.2724 C.3     1  UNL1        0.0510
      2 C         140.9645  142.5334  167.6212 C.3     1  UNL1        0.0489
      3 C         141.2451  141.6900  168.8295 C.3     1  UNL1        0.1364
      4 C         140.4726  142.9681  168.9699 C.3     1  UNL1        0.0571
      5 C         139.9808  143.4028  170.3186 C.3     1  UNL1        0.0722
      6 N         140.2614  142.5594  171.5269 N.3     1  UNL1       -0.2973
      7 C         141.0339  141.2813  171.3865 C.3     1  UNL1        0.0722
      8 C         141.5258  140.8467  170.0378 C.3     1  UNL1        0.0571
      9 O         142.0177  140.4119  168.6890 O.3     1  UNL1       -0.4828
     10 C         142.5096  139.9772  167.3403 C.ar    1  UNL1        0.1345
     11 C         143.2821  138.6991  167.1998 C.ar    1  UNL1        0.0366
     12 C         143.7740  138.2644  165.8511 C.ar    1  UNL1        0.0031
     13 C         143.4933  139.1078  164.6428 C.ar    1  UNL1       -0.0001
     14 C         142.7208  140.3858  164.7832 C.ar    1  UNL1       -0.0010
     15 C         142.2289  140.8206  166.1320 C.ar    1  UNL1        0.0156
     16 H         139.3576  142.3143  171.9313 H       1  UNL1        0.1233
     17 C         140.6145  144.6287  162.6476 C.ar    1  UNL1        0.0536
     18 C         139.5755  143.6716  163.1518 C.ar    1  UNL1        0.0042
     19 C         139.8562  142.8282  164.3601 C.ar    1  UNL1       -0.0038
     20 C         141.1757  142.9420  165.0641 C.ar    1  UNL1       -0.0182
     21 C         142.2148  143.8992  164.5599 C.ar    1  UNL1       -0.0038
     22 C         141.9341  144.7426  163.3516 C.ar    1  UNL1        0.0042
     23 N         140.7172  144.9796  160.0753 N.am    1  UNL1       -0.2761
     24 C         140.3338  145.4721  161.4393 C.2     1  UNL1        0.2490
     25 O         139.6697  146.8081  161.5950 O.2     1  UNL1       -0.2699
     26 C         141.3869  145.8103  157.7065 C.3     1  UNL1        0.0233
     27 C         140.4366  145.8229  158.8671 C.3     1  UNL1        0.0938
     28 C         141.3814  143.6436  159.9197 C.3     1  UNL1        0.0938
     29 C         140.5578  142.4276  159.6147 C.3     1  UNL1        0.0233
@<TRIPOS>BOND
     1    26    27    1
     2    27    23    1
     3    23    28    1
     4    28    29    1
     5    23    24   am
     6    24    25    2
     7    24    17    1
     8    17    18   ar
     9    18    19   ar
    10    19    20   ar
    11    20     1    1
    12     1     2    1
    13     2     3    1
    14     3     4    1
    15     4     5    1
    16     5     6    1
    17     6     7    1
    18     7     8    1
    19     3     9    1
    20     9    10    1
    21    10    11   ar
    22    11    12   ar
    23    12    13   ar
    24    13    14   ar
    25    14    15   ar
    26    20    21   ar
    27    21    22   ar
    28    22    17   ar
    29    15     1    1
    30     8     3    1
    31    15    10   ar
    32     6    16    1
@<TRIPOS>MOLECULE
*****
 29 32 0 0 0
SMALL
GASTEIGER

@<TRIPOS>ATOM
      1 C         139.7798  141.9496  165.7271 C.3     1  UNL1        0.0510
      2 C         140.1236  142.4884  167.0842 C.3     1  UNL1        0.0489
      3 C         140.0881  141.5847  168.2809 C.3     1  UNL1        0.1364
      4 C         140.4673  143.0270  168.4413 C.3     1  UNL1        0.0571
      5 C         140.8110  143.5657  169.7983 C.3     1  UNL1        0.0722
      6 N         140.7755  142.6620  170.9950 N.3     1  UNL1       -0.2973
      7 C         140.3963  141.2196  170.8346 C.3     1  UNL1        0.0722
      8 C         140.0526  140.6810  169.4776 C.3     1  UNL1        0.0571
      9 O         139.7088  140.1422  168.1204 O.3     1  UNL1       -0.4828
     10 C         139.3651  139.6036  166.7634 C.ar    1  UNL1        0.1345
     11 C         138.9859  138.1612  166.6030 C.ar    1  UNL1        0.0366
     12 C         138.6422  137.6225  165.2459 C.ar    1  UNL1        0.0031
     13 C         138.6777  138.5262  164.0492 C.ar    1  UNL1       -0.0001
     14 C         139.0569  139.9686  164.2096 C.ar    1  UNL1       -0.0010
     15 C         139.4006  140.5073  165.5667 C.ar    1  UNL1        0.0156
     16 H         140.1107  143.0699  171.6524 H       1  UNL1        0.1233
     17 C         139.8864  144.6607  162.1370 C.ar    1  UNL1        0.0536
     18 C         141.1666  144.2227  162.7842 C.ar    1  UNL1        0.0042
     19 C         141.1311  143.3190  163.9809 C.ar    1  UNL1       -0.0038
     20 C         139.8153  142.8533  164.5304 C.ar    1  UNL1       -0.0182
     21 C         138.5350  143.2914  163.8831 C.ar    1  UNL1       -0.0038
     22 C         138.5705  144.1951  162.6864 C.ar    1  UNL1        0.0042
     23 N         140.3979  145.0398  159.6182 N.am    1  UNL1       -0.2761
     24 C         139.9219  145.5644  160.9403 C.2     1  UNL1        0.2490
     25 O         139.4813  146.9928  161.0658 O.2     1  UNL1       -0.2699
     26 C         141.6130  145.9155  157.4952 C.3     1  UNL1        0.0233
     27 C         140.4334  145.9435  158.4215 C.3     1  UNL1        0.0938
     28 C         140.8385  143.6114  159.4927 C.3     1  UNL1        0.0938
     29 C         139.8550  142.5567  159.0801 C.3     1  UNL1        0.0233
@<TRIPOS>BOND
     1    26    27    1
     2    27    23    1
     3    23    28    1
     4    28    29    1
     5    23    24   am
     6    24    25    2
     7    24    17    1
     8    17    18   ar
     9    18    19   ar
    10    19    20   ar
    11    20     1    1
    12     1     2    1
    13     2     3    1
    14     3     4    1
    15     4     5    1
    16     5     6    1
    17     6     7    1
    18     7     8    1
    19     3     9    1
    20     9    10    1
    21    10    11   ar
    22    11    12   ar
    23    12    13   ar
    24    13    14   ar
    25    14    15   ar
    26    20    21   ar
    27    21    22   ar
    28    22    17   ar
    29    15     1    1
    30     8     3    1
    31    15    10   ar
    32     6    16    1
@<TRIPOS>MOLECULE
*****
 29 32 0 0 0
SMALL
GASTEIGER

@<TRIPOS>ATOM
      1 C         141.5126  140.9380  166.3029 C.3     1  UNL1        0.0510
      2 C         142.1354  141.5636  167.5157 C.3     1  UNL1        0.0489
      3 C         141.4951  141.3911  168.8611 C.3     1  UNL1        0.1364
      4 C         142.7581  142.1892  168.7285 C.3     1  UNL1        0.0571
      5 C         143.3808  142.8148  169.9412 C.3     1  UNL1        0.0722
      6 N         142.7405  142.6422  171.2867 N.3     1  UNL1       -0.2973
      7 C         141.4774  141.8441  171.4193 C.3     1  UNL1        0.0722
      8 C         140.8547  141.2185  170.2065 C.3     1  UNL1        0.0571
      9 O         140.2319  140.5929  168.9937 O.3     1  UNL1       -0.4828
     10 C         139.6092  139.9673  167.7810 C.ar    1  UNL1        0.1345
     11 C         138.3461  139.1692  167.9136 C.ar    1  UNL1        0.0366
     12 C         137.7234  138.5436  166.7008 C.ar    1  UNL1        0.0031
     13 C         138.3637  138.7162  165.3554 C.ar    1  UNL1       -0.0001
     14 C         139.6268  139.5143  165.2227 C.ar    1  UNL1       -0.0010
     15 C         140.2496  140.1399  166.4355 C.ar    1  UNL1        0.0156
     16 H         142.5358  143.5778  171.6375 H       1  UNL1        0.1233
     17 C         143.4336  141.4558  162.2666 C.ar    1  UNL1        0.0536
     18 C         142.2916  142.3394  162.6725 C.ar    1  UNL1        0.0042
     19 C         141.6512  142.1668  164.0180 C.ar    1  UNL1       -0.0038
     20 C         142.1530  141.1106  164.9574 C.ar    1  UNL1       -0.0182
     21 C         143.2951  140.2269  164.5515 C.ar    1  UNL1       -0.0038
     22 C         143.9354  140.3995  163.2061 C.ar    1  UNL1        0.0042
     23 N         143.6017  140.8111  159.7554 N.am    1  UNL1       -0.2761
     24 C         144.0740  141.6283  160.9211 C.2     1  UNL1        0.2490
     25 O         145.1867  142.6182  160.7415 O.2     1  UNL1       -0.2699
     26 C         143.8216  142.1147  157.5188 C.3     1  UNL1        0.0233
     27 C         144.2420  140.9837  158.4100 C.3     1  UNL1        0.0938
     28 C         142.4890  139.8213  159.9350 C.3     1  UNL1        0.0938
     29 C         142.8039  138.3786  160.1987 C.3     1  UNL1        0.0233
@<TRIPOS>BOND
     1    26    27    1
     2    27    23    1
     3    23    28    1
     4    28    29    1
     5    23    24   am
     6    24    25    2
     7    24    17    1
     8    17    18   ar
     9    18    19   ar
    10    19    20   ar
    11    20     1    1
    12     1     2    1
    13     2     3    1
    14     3     4    1
    15     4     5    1
    16     5     6    1
    17     6     7    1
    18     7     8    1
    19     3     9    1
    20     9    10    1
    21    10    11   ar
    22    11    12   ar
    23    12    13   ar
    24    13    14   ar
    25    14    15   ar
    26    20    21   ar
    27    21    22   ar
    28    22    17   ar
    29    15     1    1
    30     8     3    1
    31    15    10   ar
    32     6    16    1
@<TRIPOS>MOLECULE
*****
 29 32 0 0 0
SMALL
GASTEIGER

@<TRIPOS>ATOM
      1 C         141.0783  140.3042  161.6344 C.3     1  UNL1        0.0510
      2 C         142.4274  140.9578  161.6864 C.3     1  UNL1        0.0489
      3 C         143.3636  140.6566  162.8190 C.3     1  UNL1        0.1364
      4 C         143.7765  141.6114  161.7384 C.3     1  UNL1        0.0571
      5 C         145.1256  142.2650  161.7905 C.3     1  UNL1        0.0722
      6 N         146.0618  141.9637  162.9231 N.3     1  UNL1       -0.2973
      7 C         145.6488  141.0088  164.0037 C.3     1  UNL1        0.0722
      8 C         144.2997  140.3553  163.9516 C.3     1  UNL1        0.0571
      9 O         142.9506  139.7016  163.8996 O.3     1  UNL1       -0.4828
     10 C         141.6015  139.0481  163.8476 C.ar    1  UNL1        0.1345
     11 C         141.1885  138.0932  164.9282 C.ar    1  UNL1        0.0366
     12 C         139.8394  137.4396  164.8762 C.ar    1  UNL1        0.0031
     13 C         138.9032  137.7409  163.7436 C.ar    1  UNL1       -0.0001
     14 C         139.3162  138.6957  162.6630 C.ar    1  UNL1       -0.0010
     15 C         140.6653  139.3494  162.7150 C.ar    1  UNL1        0.0156
     16 H         146.2683  142.8526  163.3788 H       1  UNL1        0.1233
     17 C         138.2698  141.2081  158.2365 C.ar    1  UNL1        0.0536
     18 C         138.2216  142.0322  159.4889 C.ar    1  UNL1        0.0042
     19 C         139.1578  141.7310  160.6215 C.ar    1  UNL1       -0.0038
     20 C         140.1421  140.6055  160.5018 C.ar    1  UNL1       -0.0182
     21 C         140.1903  139.7812  159.2494 C.ar    1  UNL1       -0.0038
     22 C         139.2541  140.0825  158.1168 C.ar    1  UNL1        0.0042
     23 N         137.6096  142.6665  156.1903 N.am    1  UNL1       -0.2761
     24 C         137.3336  141.5093  157.1039 C.2     1  UNL1        0.2490
     25 O         136.1214  140.6534  156.8849 O.2     1  UNL1       -0.2699
     26 C         136.9394  144.1363  154.1554 C.3     1  UNL1        0.0233
     27 C         136.6735  142.9678  155.0577 C.3     1  UNL1        0.0938
     28 C         138.8219  143.5225  156.4093 C.3     1  UNL1        0.0938
     29 C         140.1323  143.1401  155.7877 C.3     1  UNL1        0.0233
@<TRIPOS>BOND
     1    26    27    1
     2    27    23    1
     3    23    28    1
     4    28    29    1
     5    23    24   am
     6    24    25    2
     7    24    17    1
     8    17    18   ar
     9    18    19   ar
    10    19    20   ar
    11    20     1    1
    12     1     2    1
    13     2     3    1
    14     3     4    1
    15     4     5    1
    16     5     6    1
    17     6     7    1
    18     7     8    1
    19     3     9    1
    20     9    10    1
    21    10    11   ar
    22    11    12   ar
    23    12    13   ar
    24    13    14   ar
    25    14    15   ar
    26    20    21   ar
    27    21    22   ar
    28    22    17   ar
    29    15     1    1
    30     8     3    1
    31    15    10   ar
    32     6    16    1
@<TRIPOS>MOLECULE
*****
 29 32 0 0 0
SMALL
GASTEIGER

@<TRIPOS>ATOM
      1 C         140.2515  142.0062  162.4324 C.3     1  UNL1        0.0510
      2 C         140.5905  143.1364  161.5062 C.3     1  UNL1        0.0489
      3 C         140.0051  143.1761  160.1257 C.3     1  UNL1        0.1364
      4 C         140.9295  144.2665  160.5800 C.3     1  UNL1        0.0571
      5 C         141.2685  145.3966  159.6538 C.3     1  UNL1        0.0722
      6 N         140.6831  145.4363  158.2733 N.3     1  UNL1       -0.2973
      7 C         139.7587  144.3459  157.8190 C.3     1  UNL1        0.0722
      8 C         139.4197  143.2158  158.7452 C.3     1  UNL1        0.0571
      9 O         139.0807  142.0856  159.6714 O.3     1  UNL1       -0.4828
     10 C         138.7417  140.9555  160.5976 C.ar    1  UNL1        0.1345
     11 C         137.8172  139.8650  160.1434 C.ar    1  UNL1        0.0366
     12 C         137.4782  138.7349  161.0696 C.ar    1  UNL1        0.0031
     13 C         138.0636  138.6952  162.4500 C.ar    1  UNL1       -0.0001
     14 C         138.9880  139.7856  162.9043 C.ar    1  UNL1       -0.0010
     15 C         139.3271  140.9158  161.9781 C.ar    1  UNL1        0.0156
     16 H         141.4673  145.4483  157.6212 H       1  UNL1        0.1233
     17 C         142.0077  141.8871  166.5738 C.ar    1  UNL1        0.0536
     18 C         142.6469  141.1046  165.4653 C.ar    1  UNL1        0.0042
     19 C         142.0615  141.1443  164.0848 C.ar    1  UNL1       -0.0038
     20 C         140.8369  141.9665  163.8129 C.ar    1  UNL1       -0.0182
     21 C         140.1975  142.7491  164.9214 C.ar    1  UNL1       -0.0038
     22 C         140.7829  142.7094  166.3019 C.ar    1  UNL1        0.0042
     23 N         142.0529  140.8856  168.9707 N.am    1  UNL1       -0.2761
     24 C         142.5931  141.8474  167.9543 C.2     1  UNL1        0.2490
     25 O         143.7188  142.7696  168.3184 O.2     1  UNL1       -0.2699
     26 C         142.0991  141.7490  171.4207 C.3     1  UNL1        0.0233
     27 C         142.6383  140.8459  170.3512 C.3     1  UNL1        0.0938
     28 C         140.9272  139.9635  168.6066 C.3     1  UNL1        0.0938
     29 C         139.5153  140.3281  168.9581 C.3     1  UNL1        0.0233
@<TRIPOS>BOND
     1    26    27    1
     2    27    23    1
     3    23    28    1
     4    28    29    1
     5    23    24   am
     6    24    25    2
     7    24    17    1
     8    17    18   ar
     9    18    19   ar
    10    19    20   ar
    11    20     1    1
    12     1     2    1
    13     2     3    1
    14     3     4    1
    15     4     5    1
    16     5     6    1
    17     6     7    1
    18     7     8    1
    19     3     9    1
    20     9    10    1
    21    10    11   ar
    22    11    12   ar
    23    12    13   ar
    24    13    14   ar
    25    14    15   ar
    26    20    21   ar
    27    21    22   ar
    28    22    17   ar
    29    15     1    1
    30     8     3    1
    31    15    10   ar
    32     6    16    1
@<TRIPOS>MOLECULE
*****
 29 32 0 0 0
SMALL
GASTEIGER

@<TRIPOS>ATOM
      1 C         142.1325  141.6121  166.2381 C.3     1  UNL1        0.0510
      2 C         141.4683  142.3773  167.3442 C.3     1  UNL1        0.0489
      3 C         141.4225  141.8047  168.7299 C.3     1  UNL1        0.1364
      4 C         140.8040  143.1423  168.4503 C.3     1  UNL1        0.0571
      5 C         140.1398  143.9074  169.5564 C.3     1  UNL1        0.0722
      6 N         140.0940  143.3348  170.9420 N.3     1  UNL1       -0.2973
      7 C         140.7124  141.9971  171.2216 C.3     1  UNL1        0.0722
      8 C         141.3767  141.2321  170.1155 C.3     1  UNL1        0.0571
      9 O         142.0410  140.4670  169.0094 O.3     1  UNL1       -0.4828
     10 C         142.7052  139.7019  167.9034 C.ar    1  UNL1        0.1345
     11 C         143.3237  138.3642  168.1829 C.ar    1  UNL1        0.0366
     12 C         143.9879  137.5991  167.0768 C.ar    1  UNL1        0.0031
     13 C         144.0337  138.1717  165.6912 C.ar    1  UNL1       -0.0001
     14 C         143.4153  139.5094  165.4116 C.ar    1  UNL1       -0.0010
     15 C         142.7510  140.2745  166.5177 C.ar    1  UNL1        0.0156
     16 H         139.1094  143.2634  171.1987 H       1  UNL1        0.1233
     17 C         142.2699  143.3299  162.0812 C.ar    1  UNL1        0.0536
     18 C         141.4127  142.1334  162.3703 C.ar    1  UNL1        0.0042
     19 C         141.3669  141.5609  163.7560 C.ar    1  UNL1       -0.0038
     20 C         142.1783  142.1847  164.8525 C.ar    1  UNL1       -0.0182
     21 C         143.0356  143.3812  164.5633 C.ar    1  UNL1       -0.0038
     22 C         143.0814  143.9538  163.1777 C.ar    1  UNL1        0.0042
     23 N         141.1826  144.7488  160.1959 N.am    1  UNL1       -0.2761
     24 C         142.3157  143.9025  160.6955 C.2     1  UNL1        0.2490
     25 O         143.4948  143.6288  159.8095 O.2     1  UNL1       -0.2699
     26 C         140.0302  146.0304  158.2517 C.3     1  UNL1        0.0233
     27 C         141.2283  145.3214  158.8102 C.3     1  UNL1        0.0938
     28 C         140.0035  145.0225  161.0819 C.3     1  UNL1        0.0938
     29 C         140.0133  146.2105  161.9976 C.3     1  UNL1        0.0233
@<TRIPOS>BOND
     1    26    27    1
     2    27    23    1
     3    23    28    1
     4    28    29    1
     5    23    24   am
     6    24    25    2
     7    24    17    1
     8    17    18   ar
     9    18    19   ar
    10    19    20   ar
    11    20     1    1
    12     1     2    1
    13     2     3    1
    14     3     4    1
    15     4     5    1
    16     5     6    1
    17     6     7    1
    18     7     8    1
    19     3     9    1
    20     9    10    1
    21    10    11   ar
    22    11    12   ar
    23    12    13   ar
    24    13    14   ar
    25    14    15   ar
    26    20    21   ar
    27    21    22   ar
    28    22    17   ar
    29    15     1    1
    30     8     3    1
    31    15    10   ar
    32     6    16    1
@<TRIPOS>MOLECULE
*****
 29 32 0 0 0
SMALL
GASTEIGER

@<TRIPOS>ATOM
      1 C         141.9916  142.1377  162.5212 C.3     1  UNL1        0.0510
      2 C         142.6222  141.2642  161.4774 C.3     1  UNL1        0.0489
      3 C         142.5892  141.6758  160.0353 C.3     1  UNL1        0.1364
      4 C         143.2529  140.3909  160.4336 C.3     1  UNL1        0.0571
      5 C         143.8835  139.5176  159.3898 C.3     1  UNL1        0.0722
      6 N         143.8505  139.9291  157.9477 N.3     1  UNL1       -0.2973
      7 C         143.1869  141.2139  157.5494 C.3     1  UNL1        0.0722
      8 C         142.5562  142.0873  158.5932 C.3     1  UNL1        0.0571
      9 O         141.9256  142.9607  159.6370 O.3     1  UNL1       -0.4828
     10 C         141.2949  143.8341  160.6808 C.ar    1  UNL1        0.1345
     11 C         140.6313  145.1190  160.2826 C.ar    1  UNL1        0.0366
     12 C         140.0006  145.9923  161.3263 C.ar    1  UNL1        0.0031
     13 C         140.0336  145.5808  162.7684 C.ar    1  UNL1       -0.0001
     14 C         140.6973  144.2960  163.1667 C.ar    1  UNL1       -0.0010
     15 C         141.3279  143.4225  162.1229 C.ar    1  UNL1        0.0156
     16 H         143.3762  139.1828  157.4393 H       1  UNL1        0.1233
     17 C         142.0906  140.9031  166.8474 C.ar    1  UNL1        0.0536
     18 C         141.0440  140.3419  165.9311 C.ar    1  UNL1        0.0042
     19 C         141.0110  140.7534  164.4890 C.ar    1  UNL1       -0.0038
     20 C         142.0246  141.7262  163.9632 C.ar    1  UNL1       -0.0182
     21 C         143.0712  142.2874  164.8796 C.ar    1  UNL1       -0.0038
     22 C         143.1042  141.8759  166.3217 C.ar    1  UNL1        0.0042
     23 N         141.3289  141.2565  169.3060 N.am    1  UNL1       -0.2761
     24 C         142.1236  140.4916  168.2895 C.2     1  UNL1        0.2490
     25 O         142.9512  139.3151  168.7149 O.2     1  UNL1       -0.2699
     26 C         140.3299  139.8957  171.2810 C.3     1  UNL1        0.0233
     27 C         141.3619  140.8450  170.7481 C.3     1  UNL1        0.0938
     28 C         140.5012  142.4330  168.8806 C.3     1  UNL1        0.0938
     29 C         140.5136  143.6925  169.6950 C.3     1  UNL1        0.0233
@<TRIPOS>BOND
     1    26    27    1
     2    27    23    1
     3    23    28    1
     4    28    29    1
     5    23    24   am
     6    24    25    2
     7    24    17    1
     8    17    18   ar
     9    18    19   ar
    10    19    20   ar
    11    20     1    1
    12     1     2    1
    13     2     3    1
    14     3     4    1
    15     4     5    1
    16     5     6    1
    17     6     7    1
    18     7     8    1
    19     3     9    1
    20     9    10    1
    21    10    11   ar
    22    11    12   ar
    23    12    13   ar
    24    13    14   ar
    25    14    15   ar
    26    20    21   ar
    27    21    22   ar
    28    22    17   ar
    29    15     1    1
    30     8     3    1
    31    15    10   ar
    32     6    16    1
@<TRIPOS>MOLECULE
*****
 29 32 0 0 0
SMALL
GASTEIGER

@<TRIPOS>ATOM
      1 C         140.3894  142.3917  161.4567 C.3     1  UNL1        0.0510
      2 C         141.8656  142.1267  161.4842 C.3     1  UNL1        0.0489
      3 C         142.6840  142.5628  162.6632 C.3     1  UNL1        0.1364
      4 C         143.3418  141.8618  161.5118 C.3     1  UNL1        0.0571
      5 C         144.8179  141.5968  161.5394 C.3     1  UNL1        0.0722
      6 N         145.6363  142.0329  162.7184 N.3     1  UNL1       -0.2973
      7 C         144.9785  142.7340  163.8698 C.3     1  UNL1        0.0722
      8 C         143.5024  142.9990  163.8422 C.3     1  UNL1        0.0571
      9 O         142.0262  143.2640  163.8147 O.3     1  UNL1       -0.4828
     10 C         140.5501  143.5289  163.7871 C.ar    1  UNL1        0.1345
     11 C         139.8923  144.2300  164.9385 C.ar    1  UNL1        0.0366
     12 C         138.4161  144.4950  164.9110 C.ar    1  UNL1        0.0031
     13 C         137.5977  144.0588  163.7320 C.ar    1  UNL1       -0.0001
     14 C         138.2555  143.3577  162.5805 C.ar    1  UNL1       -0.0010
     15 C         139.7317  143.0928  162.6081 C.ar    1  UNL1        0.0156
     16 H         146.3545  142.6631  162.3613 H       1  UNL1        0.1233
     17 C         137.9343  141.0832  157.9197 C.ar    1  UNL1        0.0536
     18 C         138.3855  142.5092  158.0331 C.ar    1  UNL1        0.0042
     19 C         139.2039  142.9454  159.2121 C.ar    1  UNL1       -0.0038
     20 C         139.5710  141.9555  160.2777 C.ar    1  UNL1       -0.0182
     21 C         139.1198  140.5295  160.1643 C.ar    1  UNL1       -0.0038
     22 C         138.3014  140.0933  158.9853 C.ar    1  UNL1        0.0042
     23 N         137.7945  140.2312  155.4693 N.am    1  UNL1       -0.2761
     24 C         137.1159  140.6471  156.7407 C.2     1  UNL1        0.2490
     25 O         135.6188  140.6269  156.8332 O.2     1  UNL1       -0.2699
     26 C         136.5559  138.3611  154.1582 C.3     1  UNL1        0.0233
     27 C         136.9761  139.7951  154.2903 C.3     1  UNL1        0.0938
     28 C         139.2916  140.2514  155.3769 C.3     1  UNL1        0.0938
     29 C         140.0780  139.0083  155.6704 C.3     1  UNL1        0.0233
@<TRIPOS>BOND
     1    26    27    1
     2    27    23    1
     3    23    28    1
     4    28    29    1
     5    23    24   am
     6    24    25    2
     7    24    17    1
     8    17    18   ar
     9    18    19   ar
    10    19    20   ar
    11    20     1    1
    12     1     2    1
    13     2     3    1
    14     3     4    1
    15     4     5    1
    16     5     6    1
    17     6     7    1
    18     7     8    1
    19     3     9    1
    20     9    10    1
    21    10    11   ar
    22    11    12   ar
    23    12    13   ar
    24    13    14   ar
    25    14    15   ar
    26    20    21   ar
    27    21    22   ar
    28    22    17   ar
    29    15     1    1
    30     8     3    1
    31    15    10   ar
    32     6    16    1
@<TRIPOS>MOLECULE
*****
 29 32 0 0 0
SMALL
GASTEIGER

@<TRIPOS>ATOM
      1 C         140.2930  140.3567  162.4487 C.3     1  UNL1        0.0510
      2 C         140.3116  141.8559  162.4968 C.3     1  UNL1        0.0489
      3 C         139.7034  142.5765  163.6633 C.3     1  UNL1        0.1364
      4 C         140.3302  143.3549  162.5448 C.3     1  UNL1        0.0571
      5 C         140.3488  144.8540  162.5929 C.3     1  UNL1        0.0722
      6 N         139.7407  145.5746  163.7594 N.3     1  UNL1       -0.2973
      7 C         139.1139  144.7962  164.8780 C.3     1  UNL1        0.0722
      8 C         139.0953  143.2971  164.8299 C.3     1  UNL1        0.0571
      9 O         139.0767  141.7979  164.7819 O.3     1  UNL1       -0.4828
     10 C         139.0580  140.2988  164.7338 C.ar    1  UNL1        0.1345
     11 C         138.4313  139.5203  165.8524 C.ar    1  UNL1        0.0366
     12 C         138.4126  138.0212  165.8043 C.ar    1  UNL1        0.0031
     13 C         139.0208  137.3006  164.6377 C.ar    1  UNL1       -0.0001
     14 C         139.6476  138.0791  163.5192 C.ar    1  UNL1       -0.0010
     15 C         139.6662  139.5782  163.5672 C.ar    1  UNL1        0.0156
     16 H         139.0153  146.1850  163.3829 H       1  UNL1        0.1233
     17 C         142.1174  138.1949  158.9490 C.ar    1  UNL1        0.0536
     18 C         142.9616  138.5414  160.1394 C.ar    1  UNL1        0.0042
     19 C         142.3535  139.2620  161.3060 C.ar    1  UNL1       -0.0038
     20 C         140.9011  139.6361  161.2822 C.ar    1  UNL1       -0.0182
     21 C         140.0568  139.2895  160.0917 C.ar    1  UNL1       -0.0038
     22 C         140.6649  138.5689  158.9252 C.ar    1  UNL1        0.0042
     23 N         143.2389  138.2506  156.6062 N.am    1  UNL1       -0.2761
     24 C         142.7255  137.4742  157.7825 C.2     1  UNL1        0.2490
     25 O         142.8203  135.9772  157.7923 O.2     1  UNL1       -0.2699
     26 C         142.9640  136.8619  154.4276 C.3     1  UNL1        0.0233
     27 C         143.8470  137.5300  155.4396 C.3     1  UNL1        0.0938
     28 C         143.1441  139.7476  156.5964 C.3     1  UNL1        0.0938
     29 C         144.3025  140.5755  157.0681 C.3     1  UNL1        0.0233
@<TRIPOS>BOND
     1    26    27    1
     2    27    23    1
     3    23    28    1
     4    28    29    1
     5    23    24   am
     6    24    25    2
     7    24    17    1
     8    17    18   ar
     9    18    19   ar
    10    19    20   ar
    11    20     1    1
    12     1     2    1
    13     2     3    1
    14     3     4    1
    15     4     5    1
    16     5     6    1
    17     6     7    1
    18     7     8    1
    19     3     9    1
    20     9    10    1
    21    10    11   ar
    22    11    12   ar
    23    12    13   ar
    24    13    14   ar
    25    14    15   ar
    26    20    21   ar
    27    21    22   ar
    28    22    17   ar
    29    15     1    1
    30     8     3    1
    31    15    10   ar
    32     6    16    1
