@<TRIPOS>MOLECULE
*****
 31 34 0 0 0
SMALL
GASTEIGER

@<TRIPOS>ATOM
      1 C         142.0697  139.5499  162.9315 C.3     1  UNL1        0.0342
      2 C         141.9231  141.0001  163.2859 C.ar    1  UNL1        0.0136
      3 C         141.8068  142.0293  162.2009 C.ar    1  UNL1        0.0212
      4 C         141.6602  143.4794  162.5554 C.ar    1  UNL1        0.1524
      5 C         141.6299  143.9003  163.9947 C.ar    1  UNL1        0.1619
      6 F         141.4833  145.3505  164.3492 F       1  UNL1       -0.2026
      7 C         141.7462  142.8711  165.0797 C.ar    1  UNL1        0.0676
      8 C         141.8928  141.4210  164.7253 C.ar    1  UNL1        0.1367
      9 S         141.5439  144.5086  161.4703 S.O2    1  UNL1        0.0769
     10 O         140.0885  144.6809  161.7897 O.2     1  UNL1       -0.1498
     11 O         142.9993  144.3364  161.1510 O.2     1  UNL1       -0.1498
     12 N         141.4277  145.5378  160.3853 N.pl3   1  UNL1       -0.1987
     13 H         141.3678  146.4928  160.6171 H       1  UNL1        0.1753
     14 C         141.4027  145.1120  158.9472 C.ar    1  UNL1        0.1503
     15 C         140.5869  143.9242  158.5308 C.ar    1  UNL1        0.0563
     16 C         140.5619  143.4984  157.0928 C.ar    1  UNL1        0.1036
     17 N         141.3527  144.2604  156.0711 N.ar    1  UNL1       -0.2223
     18 C         142.1686  145.4484  156.4875 C.ar    1  UNL1        0.2001
     19 N         142.1935  145.8742  157.9256 N.ar    1  UNL1       -0.2077
     20 O         142.0091  140.3918  165.8103 O.3     1  UNL1       -0.4790
     21 C         140.8637  140.1609  166.7510 C.3     1  UNL1        0.1713
     22 C         140.8448  140.4893  168.2145 C.3     1  UNL1        0.0439
     23 C         139.5056  140.0925  168.7613 C.3     1  UNL1        0.0042
     24 C         138.6968  139.5189  167.6357 C.3     1  UNL1        0.0096
     25 C         139.5362  139.5613  166.3933 C.3     1  UNL1        0.0799
     26 C         139.1209  139.0871  165.0321 C.ar    1  UNL1        0.0603
     27 C         139.2566  137.6889  164.5061 C.ar    1  UNL1        0.0369
     28 C         138.7165  137.6656  163.1069 C.ar    1  UNL1        0.1213
     29 N         138.2471  139.0494  162.7681 N.ar    1  UNL1       -0.1679
     30 N         138.4970  139.9279  163.9580 N.ar    1  UNL1       -0.2527
     31 C         138.1788  141.3905  164.0563 C.3     1  UNL1        0.1533
@<TRIPOS>BOND
     1     1     2    1
     2     2     3   ar
     3     3     4   ar
     4     4     9    1
     5     9    10    2
     6     9    11    2
     7     9    12    1
     8    12    14    1
     9    14    15   ar
    10    15    16   ar
    11    16    17   ar
    12    17    18   ar
    13    18    19   ar
    14     4     5   ar
    15     5     6    1
    16     5     7   ar
    17     7     8   ar
    18     8    20    1
    19    21    20    1
    20    21    22    1
    21    22    23    1
    22    23    24    1
    23    24    25    1
    24    25    26    1
    25    26    27   ar
    26    27    28   ar
    27    28    29   ar
    28    29    30   ar
    29    30    31    1
    30     8     2   ar
    31    25    21    1
    32    30    26   ar
    33    19    14   ar
    34    12    13    1
@<TRIPOS>MOLECULE
*****
 31 34 0 0 0
SMALL
GASTEIGER

@<TRIPOS>ATOM
      1 C         140.5138  139.4592  163.3138 C.3     1  UNL1        0.0342
      2 C         140.2128  140.8826  163.6792 C.ar    1  UNL1        0.0136
      3 C         140.4885  141.9831  162.6981 C.ar    1  UNL1        0.0212
      4 C         140.1875  143.4065  163.0635 C.ar    1  UNL1        0.1524
      5 C         139.6108  143.7292  164.4100 C.ar    1  UNL1        0.1619
      6 F         139.3098  145.1526  164.7754 F       1  UNL1       -0.2026
      7 C         139.3351  142.6287  165.3911 C.ar    1  UNL1        0.0676
      8 C         139.6361  141.2053  165.0257 C.ar    1  UNL1        0.1367
      9 S         140.4633  144.5071  162.0823 S.O2    1  UNL1        0.0769
     10 O         139.1641  144.2165  161.3912 O.2     1  UNL1       -0.1498
     11 O         141.7624  144.7977  162.7734 O.2     1  UNL1       -0.1498
     12 N         140.7390  145.6077  161.1011 N.pl3   1  UNL1       -0.1987
     13 H         140.6503  146.5481  161.3785 H       1  UNL1        0.1753
     14 C         141.1501  145.2754  159.6973 C.ar    1  UNL1        0.1503
     15 C         140.3816  145.8370  158.5380 C.ar    1  UNL1        0.0563
     16 C         140.7926  145.5047  157.1342 C.ar    1  UNL1        0.1036
     17 N         141.9721  144.6109  156.8897 N.ar    1  UNL1       -0.2223
     18 C         142.7406  144.0493  158.0491 C.ar    1  UNL1        0.2001
     19 N         142.3296  144.3815  159.4529 N.ar    1  UNL1       -0.2077
     20 O         139.3603  140.1047  166.0069 O.3     1  UNL1       -0.4790
     21 C         140.0853  140.0712  167.3196 C.3     1  UNL1        0.1713
     22 C         139.4531  140.1410  168.6781 C.3     1  UNL1        0.0439
     23 C         140.5468  140.0749  169.7024 C.3     1  UNL1        0.0042
     24 C         141.8551  139.9642  168.9770 C.3     1  UNL1        0.0096
     25 C         141.5699  139.9619  167.5044 C.3     1  UNL1        0.0799
     26 C         142.5901  139.8670  166.4089 C.ar    1  UNL1        0.0603
     27 C         143.1316  138.6002  165.8157 C.ar    1  UNL1        0.0369
     28 C         144.1241  138.9725  164.7544 C.ar    1  UNL1        0.1213
     29 N         144.1959  140.4695  164.6916 N.ar    1  UNL1       -0.1679
     30 N         143.2478  141.0223  165.7141 N.ar    1  UNL1       -0.2527
     31 C         143.0009  142.4753  165.9929 C.3     1  UNL1        0.1533
@<TRIPOS>BOND
     1     1     2    1
     2     2     3   ar
     3     3     4   ar
     4     4     9    1
     5     9    10    2
     6     9    11    2
     7     9    12    1
     8    12    14    1
     9    14    15   ar
    10    15    16   ar
    11    16    17   ar
    12    17    18   ar
    13    18    19   ar
    14     4     5   ar
    15     5     6    1
    16     5     7   ar
    17     7     8   ar
    18     8    20    1
    19    21    20    1
    20    21    22    1
    21    22    23    1
    22    23    24    1
    23    24    25    1
    24    25    26    1
    25    26    27   ar
    26    27    28   ar
    27    28    29   ar
    28    29    30   ar
    29    30    31    1
    30     8     2   ar
    31    25    21    1
    32    30    26   ar
    33    19    14   ar
    34    12    13    1
@<TRIPOS>MOLECULE
*****
 31 34 0 0 0
SMALL
GASTEIGER

@<TRIPOS>ATOM
      1 C         142.6314  141.7056  164.5951 C.3     1  UNL1        0.0342
      2 C         141.3205  142.3229  164.2072 C.ar    1  UNL1        0.0136
      3 C         141.2525  143.2725  163.0481 C.ar    1  UNL1        0.0212
      4 C         139.9416  143.8899  162.6602 C.ar    1  UNL1        0.1524
      5 C         138.6987  143.5575  163.4314 C.ar    1  UNL1        0.1619
      6 F         137.3878  144.1749  163.0435 F       1  UNL1       -0.2026
      7 C         138.7667  142.6079  164.5904 C.ar    1  UNL1        0.0676
      8 C         140.0776  141.9905  164.9783 C.ar    1  UNL1        0.1367
      9 S         139.8737  144.8396  161.5011 S.O2    1  UNL1        0.0769
     10 O         139.2016  143.7833  160.6749 O.2     1  UNL1       -0.1498
     11 O         140.5457  145.8959  162.3272 O.2     1  UNL1       -0.1498
     12 N         139.8057  145.7893  160.3420 N.pl3   1  UNL1       -0.1987
     13 H         139.2510  146.6004  160.4021 H       1  UNL1        0.1753
     14 C         140.5830  145.5032  159.0915 C.ar    1  UNL1        0.1503
     15 C         140.0538  145.9495  157.7608 C.ar    1  UNL1        0.0563
     16 C         140.8311  145.6634  156.5102 C.ar    1  UNL1        0.1036
     17 N         142.1377  144.9311  156.5903 N.ar    1  UNL1       -0.2223
     18 C         142.6670  144.4847  157.9210 C.ar    1  UNL1        0.2001
     19 N         141.8897  144.7708  159.1716 N.ar    1  UNL1       -0.2077
     20 O         140.1456  141.0408  166.1375 O.3     1  UNL1       -0.4790
     21 C         139.4166  139.7313  166.0779 C.3     1  UNL1        0.1713
     22 C         138.2986  139.3026  166.9814 C.3     1  UNL1        0.0439
     23 C         137.8685  137.9269  166.5662 C.3     1  UNL1        0.0042
     24 C         138.7208  137.5053  165.4060 C.3     1  UNL1        0.0096
     25 C         139.6775  138.6205  165.1042 C.3     1  UNL1        0.0799
     26 C         140.7133  138.6242  164.0193 C.ar    1  UNL1        0.0603
     27 C         142.1035  138.0710  164.1256 C.ar    1  UNL1        0.0369
     28 C         142.7900  138.2866  162.8095 C.ar    1  UNL1        0.1213
     29 N         141.8242  138.9731  161.8897 N.ar    1  UNL1       -0.1679
     30 N         140.5406  139.1817  162.6375 N.ar    1  UNL1       -0.2527
     31 C         139.3020  139.8334  162.0980 C.3     1  UNL1        0.1533
@<TRIPOS>BOND
     1     1     2    1
     2     2     3   ar
     3     3     4   ar
     4     4     9    1
     5     9    10    2
     6     9    11    2
     7     9    12    1
     8    12    14    1
     9    14    15   ar
    10    15    16   ar
    11    16    17   ar
    12    17    18   ar
    13    18    19   ar
    14     4     5   ar
    15     5     6    1
    16     5     7   ar
    17     7     8   ar
    18     8    20    1
    19    21    20    1
    20    21    22    1
    21    22    23    1
    22    23    24    1
    23    24    25    1
    24    25    26    1
    25    26    27   ar
    26    27    28   ar
    27    28    29   ar
    28    29    30   ar
    29    30    31    1
    30     8     2   ar
    31    25    21    1
    32    30    26   ar
    33    19    14   ar
    34    12    13    1
@<TRIPOS>MOLECULE
*****
 31 34 0 0 0
SMALL
GASTEIGER

@<TRIPOS>ATOM
      1 C         138.2917  140.6979  163.5490 C.3     1  UNL1        0.0342
      2 C         139.2095  141.8742  163.7039 C.ar    1  UNL1        0.0136
      3 C         139.4096  142.8249  162.5611 C.ar    1  UNL1        0.0212
      4 C         140.3274  144.0012  162.7159 C.ar    1  UNL1        0.1524
      5 C         141.0452  144.2267  164.0135 C.ar    1  UNL1        0.1619
      6 F         141.9630  145.4030  164.1684 F       1  UNL1       -0.2026
      7 C         140.8451  143.2760  165.1564 C.ar    1  UNL1        0.0676
      8 C         139.9273  142.0997  165.0015 C.ar    1  UNL1        0.1367
      9 S         140.5275  144.9519  161.5730 S.O2    1  UNL1        0.0769
     10 O         139.1808  145.5561  161.8398 O.2     1  UNL1       -0.1498
     11 O         141.8742  144.3477  161.3062 O.2     1  UNL1       -0.1498
     12 N         140.7276  145.9026  160.4302 N.pl3   1  UNL1       -0.1987
     13 H         140.7445  146.8731  160.5944 H       1  UNL1        0.1753
     14 C         140.9020  145.3745  159.0370 C.ar    1  UNL1        0.1503
     15 C         139.9296  144.3734  158.4873 C.ar    1  UNL1        0.0563
     16 C         140.1040  143.8454  157.0942 C.ar    1  UNL1        0.1036
     17 N         141.2507  144.3184  156.2508 N.ar    1  UNL1       -0.2223
     18 C         142.2231  145.3196  156.8006 C.ar    1  UNL1        0.2001
     19 N         142.0487  145.8476  158.1937 N.ar    1  UNL1       -0.2077
     20 O         139.7272  141.1490  166.1444 O.3     1  UNL1       -0.4790
     21 C         140.9096  140.4752  166.7752 C.3     1  UNL1        0.1713
     22 C         141.7688  139.4236  166.1381 C.3     1  UNL1        0.0439
     23 C         142.8306  139.0331  167.1230 C.3     1  UNL1        0.0042
     24 C         142.6276  139.8434  168.3689 C.3     1  UNL1        0.0096
     25 C         141.4403  140.7346  168.1540 C.3     1  UNL1        0.0799
     26 C         140.8820  141.7134  169.1440 C.ar    1  UNL1        0.0603
     27 C         140.8167  143.2020  168.9713 C.ar    1  UNL1        0.0369
     28 C         140.1852  143.7840  170.2011 C.ar    1  UNL1        0.1213
     29 N         139.8602  142.6552  171.1339 N.ar    1  UNL1       -0.1679
     30 N         140.2909  141.3754  170.4805 N.ar    1  UNL1       -0.2527
     31 C         140.1543  139.9994  171.0617 C.3     1  UNL1        0.1533
@<TRIPOS>BOND
     1     1     2    1
     2     2     3   ar
     3     3     4   ar
     4     4     9    1
     5     9    10    2
     6     9    11    2
     7     9    12    1
     8    12    14    1
     9    14    15   ar
    10    15    16   ar
    11    16    17   ar
    12    17    18   ar
    13    18    19   ar
    14     4     5   ar
    15     5     6    1
    16     5     7   ar
    17     7     8   ar
    18     8    20    1
    19    21    20    1
    20    21    22    1
    21    22    23    1
    22    23    24    1
    23    24    25    1
    24    25    26    1
    25    26    27   ar
    26    27    28   ar
    27    28    29   ar
    28    29    30   ar
    29    30    31    1
    30     8     2   ar
    31    25    21    1
    32    30    26   ar
    33    19    14   ar
    34    12    13    1
@<TRIPOS>MOLECULE
*****
 31 34 0 0 0
SMALL
GASTEIGER

@<TRIPOS>ATOM
      1 C         139.2346  139.5172  166.1742 C.3     1  UNL1        0.0342
      2 C         139.3387  140.9379  165.7044 C.ar    1  UNL1        0.0136
      3 C         139.0930  141.2710  164.2627 C.ar    1  UNL1        0.0212
      4 C         139.1971  142.6917  163.7929 C.ar    1  UNL1        0.1524
      5 C         139.5470  143.7794  164.7648 C.ar    1  UNL1        0.1619
      6 F         139.6511  145.2001  164.2950 F       1  UNL1       -0.2026
      7 C         139.7927  143.4463  166.2065 C.ar    1  UNL1        0.0676
      8 C         139.6886  142.0255  166.6763 C.ar    1  UNL1        0.1367
      9 S         138.9514  143.0248  162.3511 S.O2    1  UNL1        0.0769
     10 O         140.4310  143.0783  162.1112 O.2     1  UNL1       -0.1498
     11 O         137.4717  142.9713  162.5910 O.2     1  UNL1       -0.1498
     12 N         138.7056  143.3579  160.9093 N.pl3   1  UNL1       -0.1987
     13 H         138.6360  144.2982  160.6263 H       1  UNL1        0.1753
     14 C         138.5658  142.2582  159.8988 C.ar    1  UNL1        0.1503
     15 C         138.3564  142.5918  158.4515 C.ar    1  UNL1        0.0563
     16 C         138.2166  141.4921  157.4410 C.ar    1  UNL1        0.1036
     17 N         138.2862  140.0588  157.8778 N.ar    1  UNL1       -0.2223
     18 C         138.4955  139.7252  159.3252 C.ar    1  UNL1        0.2001
     19 N         138.6353  140.8249  160.3357 N.ar    1  UNL1       -0.2077
     20 O         139.9344  141.6925  168.1181 O.3     1  UNL1       -0.4790
     21 C         141.2390  142.0597  168.7609 C.3     1  UNL1        0.1713
     22 C         141.4205  143.0100  169.9071 C.3     1  UNL1        0.0439
     23 C         142.8848  143.0787  170.2249 C.3     1  UNL1        0.0042
     24 C         143.6083  142.1707  169.2750 C.3     1  UNL1        0.0096
     25 C         142.5911  141.5409  168.3702 C.3     1  UNL1        0.0799
     26 C         142.8761  140.5640  167.2683 C.ar    1  UNL1        0.0603
     27 C         142.9419  139.0719  167.4079 C.ar    1  UNL1        0.0369
     28 C         143.2518  138.4934  166.0591 C.ar    1  UNL1        0.1213
     29 N         143.3774  139.6278  165.0858 N.ar    1  UNL1       -0.1679
     30 N         143.1452  140.9075  165.8332 N.ar    1  UNL1       -0.2527
     31 C         143.1766  142.2883  165.2480 C.3     1  UNL1        0.1533
@<TRIPOS>BOND
     1     1     2    1
     2     2     3   ar
     3     3     4   ar
     4     4     9    1
     5     9    10    2
     6     9    11    2
     7     9    12    1
     8    12    14    1
     9    14    15   ar
    10    15    16   ar
    11    16    17   ar
    12    17    18   ar
    13    18    19   ar
    14     4     5   ar
    15     5     6    1
    16     5     7   ar
    17     7     8   ar
    18     8    20    1
    19    21    20    1
    20    21    22    1
    21    22    23    1
    22    23    24    1
    23    24    25    1
    24    25    26    1
    25    26    27   ar
    26    27    28   ar
    27    28    29   ar
    28    29    30   ar
    29    30    31    1
    30     8     2   ar
    31    25    21    1
    32    30    26   ar
    33    19    14   ar
    34    12    13    1
@<TRIPOS>MOLECULE
*****
 31 34 0 0 0
SMALL
GASTEIGER

@<TRIPOS>ATOM
      1 C         138.5023  137.6440  165.8645 C.3     1  UNL1        0.0342
      2 C         138.7614  139.0860  165.5427 C.ar    1  UNL1        0.0136
      3 C         138.4773  139.6101  164.1663 C.ar    1  UNL1        0.0212
      4 C         138.7364  141.0521  163.8446 C.ar    1  UNL1        0.1524
      5 C         139.2796  141.9700  164.8993 C.ar    1  UNL1        0.1619
      6 F         139.5387  143.4120  164.5776 F       1  UNL1       -0.2026
      7 C         139.5636  141.4459  166.2757 C.ar    1  UNL1        0.0676
      8 C         139.3045  140.0039  166.5974 C.ar    1  UNL1        0.1367
      9 S         138.4523  141.5762  162.4681 S.O2    1  UNL1        0.0769
     10 O         137.1061  142.0525  162.9272 O.2     1  UNL1       -0.1498
     11 O         139.7985  141.1000  162.0090 O.2     1  UNL1       -0.1498
     12 N         138.1683  142.1003  161.0916 N.pl3   1  UNL1       -0.1987
     13 H         137.4471  141.7022  160.5525 H       1  UNL1        0.1753
     14 C         138.9831  143.2308  160.5366 C.ar    1  UNL1        0.1503
     15 C         139.4330  143.1993  159.1061 C.ar    1  UNL1        0.0563
     16 C         140.2478  144.3298  158.5510 C.ar    1  UNL1        0.1036
     17 N         140.6126  145.4918  159.4265 N.ar    1  UNL1       -0.2223
     18 C         140.1627  145.5233  160.8572 C.ar    1  UNL1        0.2001
     19 N         139.3479  144.3928  161.4122 N.ar    1  UNL1       -0.2077
     20 O         139.5886  139.4798  167.9739 O.3     1  UNL1       -0.4790
     21 C         140.6956  140.0780  168.7905 C.3     1  UNL1        0.1713
     22 C         140.5845  140.5625  170.2058 C.3     1  UNL1        0.0439
     23 C         141.9282  141.0806  170.6252 C.3     1  UNL1        0.0042
     24 C         142.8698  140.9164  169.4691 C.3     1  UNL1        0.0096
     25 C         142.1079  140.2967  168.3353 C.3     1  UNL1        0.0799
     26 C         142.6614  139.9557  166.9835 C.ar    1  UNL1        0.0603
     27 C         142.8166  138.5755  166.4168 C.ar    1  UNL1        0.0369
     28 C         143.4079  138.7019  165.0441 C.ar    1  UNL1        0.1213
     29 N         143.6183  140.1600  164.7623 N.ar    1  UNL1       -0.1679
     30 N         143.1568  140.9350  165.9610 N.ar    1  UNL1       -0.2527
     31 C         143.1859  142.4272  166.1107 C.3     1  UNL1        0.1533
@<TRIPOS>BOND
     1     1     2    1
     2     2     3   ar
     3     3     4   ar
     4     4     9    1
     5     9    10    2
     6     9    11    2
     7     9    12    1
     8    12    14    1
     9    14    15   ar
    10    15    16   ar
    11    16    17   ar
    12    17    18   ar
    13    18    19   ar
    14     4     5   ar
    15     5     6    1
    16     5     7   ar
    17     7     8   ar
    18     8    20    1
    19    21    20    1
    20    21    22    1
    21    22    23    1
    22    23    24    1
    23    24    25    1
    24    25    26    1
    25    26    27   ar
    26    27    28   ar
    27    28    29   ar
    28    29    30   ar
    29    30    31    1
    30     8     2   ar
    31    25    21    1
    32    30    26   ar
    33    19    14   ar
    34    12    13    1
@<TRIPOS>MOLECULE
*****
 31 34 0 0 0
SMALL
GASTEIGER

@<TRIPOS>ATOM
      1 C         142.8482  142.5095  165.7961 C.3     1  UNL1        0.0342
      2 C         142.2751  142.3268  164.4220 C.ar    1  UNL1        0.0136
      3 C         142.3148  143.4568  163.4364 C.ar    1  UNL1        0.0212
      4 C         141.7416  143.2740  162.0623 C.ar    1  UNL1        0.1524
      5 C         141.1288  141.9612  161.6739 C.ar    1  UNL1        0.1619
      6 F         140.5556  141.7785  160.2998 F       1  UNL1       -0.2026
      7 C         141.0891  140.8312  162.6595 C.ar    1  UNL1        0.0676
      8 C         141.6622  141.0140  164.0335 C.ar    1  UNL1        0.1367
      9 S         141.7814  144.4041  161.0767 S.O2    1  UNL1        0.0769
     10 O         143.0076  143.8122  160.4474 O.2     1  UNL1       -0.1498
     11 O         140.5552  144.9960  161.7060 O.2     1  UNL1       -0.1498
     12 N         141.8211  145.5342  160.0912 N.pl3   1  UNL1       -0.1987
     13 H         142.1483  146.4197  160.3705 H       1  UNL1        0.1753
     14 C         141.3621  145.3151  158.6800 C.ar    1  UNL1        0.1503
     15 C         142.0859  145.9763  157.5447 C.ar    1  UNL1        0.0563
     16 C         141.6270  145.7572  156.1336 C.ar    1  UNL1        0.1036
     17 N         140.4442  144.8770  155.8577 N.ar    1  UNL1       -0.2223
     18 C         139.7203  144.2158  156.9930 C.ar    1  UNL1        0.2001
     19 N         140.1793  144.4348  158.4041 N.ar    1  UNL1       -0.2077
     20 O         141.6225  139.8839  165.0192 O.3     1  UNL1       -0.4790
     21 C         140.4279  139.7062  165.9087 C.3     1  UNL1        0.1713
     22 C         140.3969  139.9100  167.3945 C.3     1  UNL1        0.0439
     23 C         139.0045  139.6233  167.8728 C.3     1  UNL1        0.0042
     24 C         138.1748  139.2424  166.6826 C.3     1  UNL1        0.0096
     25 C         139.0546  139.2936  165.4688 C.3     1  UNL1        0.0799
     26 C         138.6347  138.9862  164.0619 C.ar    1  UNL1        0.0603
     27 C         138.8879  137.7037  163.3265 C.ar    1  UNL1        0.0369
     28 C         138.2975  137.8322  161.9536 C.ar    1  UNL1        0.1213
     29 N         137.6793  139.1942  161.8405 N.ar    1  UNL1       -0.1679
     30 N         137.8877  139.9074  163.1436 N.ar    1  UNL1       -0.2527
     31 C         137.4295  141.2978  163.4707 C.3     1  UNL1        0.1533
@<TRIPOS>BOND
     1     1     2    1
     2     2     3   ar
     3     3     4   ar
     4     4     9    1
     5     9    10    2
     6     9    11    2
     7     9    12    1
     8    12    14    1
     9    14    15   ar
    10    15    16   ar
    11    16    17   ar
    12    17    18   ar
    13    18    19   ar
    14     4     5   ar
    15     5     6    1
    16     5     7   ar
    17     7     8   ar
    18     8    20    1
    19    21    20    1
    20    21    22    1
    21    22    23    1
    22    23    24    1
    23    24    25    1
    24    25    26    1
    25    26    27   ar
    26    27    28   ar
    27    28    29   ar
    28    29    30   ar
    29    30    31    1
    30     8     2   ar
    31    25    21    1
    32    30    26   ar
    33    19    14   ar
    34    12    13    1
@<TRIPOS>MOLECULE
*****
 31 34 0 0 0
SMALL
GASTEIGER

@<TRIPOS>ATOM
      1 C         138.4524  140.5365  163.6985 C.3     1  UNL1        0.0342
      2 C         139.2844  141.7761  163.8438 C.ar    1  UNL1        0.0136
      3 C         139.4788  142.6907  162.6710 C.ar    1  UNL1        0.0212
      4 C         140.3109  143.9303  162.8163 C.ar    1  UNL1        0.1524
      5 C         140.9485  144.2553  164.1345 C.ar    1  UNL1        0.1619
      6 F         141.7806  145.4949  164.2799 F       1  UNL1       -0.2026
      7 C         140.7542  143.3406  165.3074 C.ar    1  UNL1        0.0676
      8 C         139.9221  142.1011  165.1621 C.ar    1  UNL1        0.1367
      9 S         140.5052  144.8449  161.6434 S.O2    1  UNL1        0.0769
     10 O         141.8664  144.2589  161.4119 O.2     1  UNL1       -0.1498
     11 O         139.1440  145.4309  161.8748 O.2     1  UNL1       -0.1498
     12 N         140.6995  145.7595  160.4705 N.pl3   1  UNL1       -0.1987
     13 H         140.8943  146.7134  160.6171 H       1  UNL1        0.1753
     14 C         140.5970  145.2209  159.0743 C.ar    1  UNL1        0.1503
     15 C         141.4885  145.7599  157.9952 C.ar    1  UNL1        0.0563
     16 C         141.3860  145.2212  156.5990 C.ar    1  UNL1        0.1036
     17 N         140.3920  144.1436  156.2819 N.ar    1  UNL1       -0.2223
     18 C         139.5004  143.6045  157.3611 C.ar    1  UNL1        0.2001
     19 N         139.6029  144.1432  158.7573 N.ar    1  UNL1       -0.2077
     20 O         139.7278  141.1864  166.3350 O.3     1  UNL1       -0.4790
     21 C         140.9134  140.5334  166.9814 C.3     1  UNL1        0.1713
     22 C         141.4583  140.8459  168.3435 C.3     1  UNL1        0.0439
     23 C         142.6440  139.9589  168.5832 C.3     1  UNL1        0.0042
     24 C         142.8318  139.0982  167.3691 C.3     1  UNL1        0.0096
     25 C         141.7622  139.4532  166.3792 C.3     1  UNL1        0.0799
     26 C         141.5744  138.8364  165.0248 C.ar    1  UNL1        0.0603
     27 C         140.8478  137.5574  164.7316 C.ar    1  UNL1        0.0369
     28 C         140.9047  137.3208  163.2514 C.ar    1  UNL1        0.1213
     29 N         141.6665  138.4537  162.6299 N.ar    1  UNL1       -0.1679
     30 N         142.0804  139.3904  163.7260 N.ar    1  UNL1       -0.2527
     31 C         142.8629  140.6584  163.5533 C.3     1  UNL1        0.1533
@<TRIPOS>BOND
     1     1     2    1
     2     2     3   ar
     3     3     4   ar
     4     4     9    1
     5     9    10    2
     6     9    11    2
     7     9    12    1
     8    12    14    1
     9    14    15   ar
    10    15    16   ar
    11    16    17   ar
    12    17    18   ar
    13    18    19   ar
    14     4     5   ar
    15     5     6    1
    16     5     7   ar
    17     7     8   ar
    18     8    20    1
    19    21    20    1
    20    21    22    1
    21    22    23    1
    22    23    24    1
    23    24    25    1
    24    25    26    1
    25    26    27   ar
    26    27    28   ar
    27    28    29   ar
    28    29    30   ar
    29    30    31    1
    30     8     2   ar
    31    25    21    1
    32    30    26   ar
    33    19    14   ar
    34    12    13    1
@<TRIPOS>MOLECULE
*****
 31 34 0 0 0
SMALL
GASTEIGER

@<TRIPOS>ATOM
      1 C         143.7089  142.5519  164.9391 C.3     1  UNL1        0.0342
      2 C         142.2971  143.0220  164.7500 C.ar    1  UNL1        0.0136
      3 C         141.8582  143.5629  163.4216 C.ar    1  UNL1        0.0212
      4 C         140.4464  144.0330  163.2326 C.ar    1  UNL1        0.1524
      5 C         139.4734  143.9621  164.3719 C.ar    1  UNL1        0.1619
      6 F         138.0615  144.4321  164.1829 F       1  UNL1       -0.2026
      7 C         139.9122  143.4211  165.7003 C.ar    1  UNL1        0.0676
      8 C         141.3241  142.9510  165.8894 C.ar    1  UNL1        0.1367
      9 S         140.0076  144.5740  161.9041 S.O2    1  UNL1        0.0769
     10 O         140.6723  145.8817  162.2170 O.2     1  UNL1       -0.1498
     11 O         139.3429  143.2663  161.5911 O.2     1  UNL1       -0.1498
     12 N         139.5688  145.1149  160.5756 N.pl3   1  UNL1       -0.1987
     13 H         138.6718  145.5085  160.4764 H       1  UNL1        0.1753
     14 C         140.4965  145.0563  159.3984 C.ar    1  UNL1        0.1503
     15 C         140.2012  145.8644  158.1697 C.ar    1  UNL1        0.0563
     16 C         141.1290  145.8057  156.9925 C.ar    1  UNL1        0.1036
     17 N         142.3521  144.9390  157.0440 N.ar    1  UNL1       -0.2223
     18 C         142.6475  144.1308  158.2727 C.ar    1  UNL1        0.2001
     19 N         141.7197  144.1895  159.4500 N.ar    1  UNL1       -0.2077
     20 O         141.7629  142.4100  167.2179 O.3     1  UNL1       -0.4790
     21 C         140.7786  141.7036  168.1022 C.3     1  UNL1        0.1713
     22 C         140.3024  142.1749  169.4442 C.3     1  UNL1        0.0439
     23 C         139.3271  141.1644  169.9712 C.3     1  UNL1        0.0042
     24 C         139.2005  140.0685  168.9547 C.3     1  UNL1        0.0096
     25 C         140.0976  140.4018  167.7996 C.3     1  UNL1        0.0799
     26 C         140.2813  139.5779  166.5597 C.ar    1  UNL1        0.0603
     27 C         139.2069  139.2047  165.5818 C.ar    1  UNL1        0.0369
     28 C         139.8334  138.3786  164.4978 C.ar    1  UNL1        0.1213
     29 N         141.2950  138.2413  164.8057 N.ar    1  UNL1       -0.1679
     30 N         141.5718  138.9824  166.0801 N.ar    1  UNL1       -0.2527
     31 C         142.9052  139.1064  166.7560 C.3     1  UNL1        0.1533
@<TRIPOS>BOND
     1     1     2    1
     2     2     3   ar
     3     3     4   ar
     4     4     9    1
     5     9    10    2
     6     9    11    2
     7     9    12    1
     8    12    14    1
     9    14    15   ar
    10    15    16   ar
    11    16    17   ar
    12    17    18   ar
    13    18    19   ar
    14     4     5   ar
    15     5     6    1
    16     5     7   ar
    17     7     8   ar
    18     8    20    1
    19    21    20    1
    20    21    22    1
    21    22    23    1
    22    23    24    1
    23    24    25    1
    24    25    26    1
    25    26    27   ar
    26    27    28   ar
    27    28    29   ar
    28    29    30   ar
    29    30    31    1
    30     8     2   ar
    31    25    21    1
    32    30    26   ar
    33    19    14   ar
    34    12    13    1
