@<TRIPOS>MOLECULE
*****
 27 29 0 0 0
SMALL
GASTEIGER

@<TRIPOS>ATOM
      1 C         141.6045  140.9820  168.4214 C.3     1  UNL1        0.0716
      2 C         142.6664  141.7818  167.7265 C.3     1  UNL1        0.0199
      3 C         142.3051  142.6580  166.5639 C.3     1  UNL1        0.0060
      4 C         140.8820  142.7345  166.0962 C.3     1  UNL1        0.0225
      5 C         139.8201  141.9347  166.7909 C.3     1  UNL1        0.0060
      6 C         140.1814  141.0584  167.9536 C.3     1  UNL1        0.0199
      7 C         140.5207  143.6107  164.9336 C.ar    1  UNL1       -0.0201
      8 C         141.5869  144.3888  164.2210 C.ar    1  UNL1       -0.0010
      9 C         141.2256  145.2651  163.0584 C.ar    1  UNL1        0.0386
     10 C         139.7981  145.3633  162.6083 C.ar    1  UNL1        0.1610
     11 O         139.4369  146.2396  161.4457 O.3     1  UNL1       -0.5034
     12 C         138.7319  144.5852  163.3209 C.ar    1  UNL1        0.1732
     13 F         137.3044  144.6834  162.8708 F       1  UNL1       -0.2010
     14 C         139.0931  143.7089  164.4835 C.ar    1  UNL1        0.0285
     15 H         140.1029  146.7256  161.0006 H       1  UNL1        0.2923
     16 O         143.2447  138.5087  167.9828 O.2     1  UNL1       -0.2751
     17 C         142.7859  138.8691  169.3646 C.2     1  UNL1        0.2228
     18 N         141.9658  140.1057  169.5840 N.am    1  UNL1       -0.3060
     19 H         141.6646  140.3422  170.4909 H       1  UNL1        0.1494
     20 C         143.1472  137.9928  170.5273 C.3     1  UNL1        0.0897
     21 C         144.0240  136.7937  170.3187 C.3     1  UNL1        0.0359
     22 C         144.8593  136.2696  171.4490 C.ar    1  UNL1       -0.0217
     23 C         144.8346  134.8079  171.7848 C.ar    1  UNL1       -0.0043
     24 C         145.6698  134.2838  172.9151 C.ar    1  UNL1       -0.0003
     25 C         146.5298  135.2215  173.7096 C.ar    1  UNL1       -0.0000
     26 C         146.5545  136.6832  173.3739 C.ar    1  UNL1       -0.0003
     27 C         145.7193  137.2072  172.2436 C.ar    1  UNL1       -0.0043
@<TRIPOS>BOND
     1    16    17    2
     2    17    20    1
     3    20    21    1
     4    21    22    1
     5    22    23   ar
     6    23    24   ar
     7    24    25   ar
     8    25    26   ar
     9    26    27   ar
    10    17    18   am
    11     1    18    1
    12     1     2    1
    13     2     3    1
    14     3     4    1
    15     4     7    1
    16     7     8   ar
    17     8     9   ar
    18     9    10   ar
    19    10    11    1
    20    10    12   ar
    21    12    13    1
    22    12    14   ar
    23     4     5    1
    24     5     6    1
    25    27    22   ar
    26     6     1    1
    27    14     7   ar
    28    18    19    1
    29    11    15    1
@<TRIPOS>MOLECULE
*****
 27 29 0 0 0
SMALL
GASTEIGER

@<TRIPOS>ATOM
      1 C         140.8463  144.5828  163.5777 C.3     1  UNL1        0.0716
      2 C         141.8862  143.5820  163.9867 C.3     1  UNL1        0.0199
      3 C         141.6983  142.7728  165.2355 C.3     1  UNL1        0.0060
      4 C         140.4704  142.9642  166.0756 C.3     1  UNL1        0.0225
      5 C         139.4305  143.9649  165.6667 C.3     1  UNL1        0.0060
      6 C         139.6184  144.7742  164.4178 C.3     1  UNL1        0.0199
      7 C         140.2824  142.1549  167.3244 C.ar    1  UNL1       -0.0201
      8 C         139.8179  140.7315  167.2330 C.ar    1  UNL1       -0.0010
      9 C         139.6299  139.9223  168.4819 C.ar    1  UNL1        0.0386
     10 C         139.9063  140.5364  169.8222 C.ar    1  UNL1        0.1610
     11 O         139.7183  139.7270  171.0711 O.3     1  UNL1       -0.5034
     12 C         140.3707  141.9597  169.9137 C.ar    1  UNL1        0.1732
     13 F         140.6471  142.5738  171.2540 F       1  UNL1       -0.2010
     14 C         140.5588  142.7690  168.6648 C.ar    1  UNL1        0.0285
     15 H         139.4282  138.8379  171.0140 H       1  UNL1        0.2923
     16 O         139.2064  143.9803  161.1390 O.2     1  UNL1       -0.2751
     17 C         140.2144  145.0908  161.1095 C.2     1  UNL1        0.2228
     18 N         141.0343  145.3920  162.3289 N.am    1  UNL1       -0.3060
     19 H         141.6959  146.1208  162.3095 H       1  UNL1        0.1494
     20 C         140.4023  145.9000  159.8606 C.3     1  UNL1        0.0897
     21 C         141.1047  145.3018  158.6779 C.3     1  UNL1        0.0359
     22 C         140.8003  145.7974  157.2952 C.ar    1  UNL1       -0.0217
     23 C         139.6362  146.7153  157.0668 C.ar    1  UNL1       -0.0043
     24 C         139.3318  147.2107  155.6841 C.ar    1  UNL1       -0.0003
     25 C         140.1916  146.7883  154.5298 C.ar    1  UNL1       -0.0000
     26 C         141.3557  145.8704  154.7582 C.ar    1  UNL1       -0.0003
     27 C         141.6601  145.3749  156.1409 C.ar    1  UNL1       -0.0043
@<TRIPOS>BOND
     1    16    17    2
     2    17    20    1
     3    20    21    1
     4    21    22    1
     5    22    23   ar
     6    23    24   ar
     7    24    25   ar
     8    25    26   ar
     9    26    27   ar
    10    17    18   am
    11     1    18    1
    12     1     2    1
    13     2     3    1
    14     3     4    1
    15     4     7    1
    16     7     8   ar
    17     8     9   ar
    18     9    10   ar
    19    10    11    1
    20    10    12   ar
    21    12    13    1
    22    12    14   ar
    23     4     5    1
    24     5     6    1
    25    27    22   ar
    26     6     1    1
    27    14     7   ar
    28    18    19    1
    29    11    15    1
@<TRIPOS>MOLECULE
*****
 27 29 0 0 0
SMALL
GASTEIGER

@<TRIPOS>ATOM
      1 C         139.2173  139.9719  163.6465 C.3     1  UNL1        0.0716
      2 C         138.6946  139.1033  164.7521 C.3     1  UNL1        0.0199
      3 C         138.9414  139.4806  166.1827 C.3     1  UNL1        0.0060
      4 C         139.7110  140.7265  166.5078 C.3     1  UNL1        0.0225
      5 C         140.2337  141.5950  165.4022 C.3     1  UNL1        0.0060
      6 C         139.9868  141.2178  163.9715 C.3     1  UNL1        0.0199
      7 C         139.9578  141.1038  167.9384 C.ar    1  UNL1       -0.0201
      8 C         139.7253  140.1009  169.0294 C.ar    1  UNL1       -0.0010
      9 C         139.9721  140.4782  170.4600 C.ar    1  UNL1        0.0386
     10 C         140.4515  141.8583  170.7997 C.ar    1  UNL1        0.1610
     11 O         140.6983  142.2356  172.2304 O.3     1  UNL1       -0.5034
     12 C         140.6840  142.8612  169.7087 C.ar    1  UNL1        0.1732
     13 F         141.1634  144.2413  170.0484 F       1  UNL1       -0.2010
     14 C         140.4372  142.4839  168.2780 C.ar    1  UNL1        0.0285
     15 H         140.5531  141.6091  172.9118 H       1  UNL1        0.2923
     16 O         137.1636  141.4529  162.0376 O.2     1  UNL1       -0.2751
     17 C         137.9436  140.3351  161.4114 C.2     1  UNL1        0.2228
     18 N         138.9705  139.5946  162.2159 N.am    1  UNL1       -0.3060
     19 H         139.4824  138.8609  161.8049 H       1  UNL1        0.1494
     20 C         137.6967  139.9578  159.9807 C.3     1  UNL1        0.0897
     21 C         138.6657  140.3791  158.9161 C.3     1  UNL1        0.0359
     22 C         139.5832  141.5416  159.1544 C.ar    1  UNL1       -0.0217
     23 C         139.0690  142.9438  159.0149 C.ar    1  UNL1       -0.0043
     24 C         139.9865  144.1062  159.2533 C.ar    1  UNL1       -0.0003
     25 C         141.4182  143.8665  159.6311 C.ar    1  UNL1       -0.0000
     26 C         141.9324  142.4644  159.7706 C.ar    1  UNL1       -0.0003
     27 C         141.0149  141.3019  159.5323 C.ar    1  UNL1       -0.0043
@<TRIPOS>BOND
     1    16    17    2
     2    17    20    1
     3    20    21    1
     4    21    22    1
     5    22    23   ar
     6    23    24   ar
     7    24    25   ar
     8    25    26   ar
     9    26    27   ar
    10    17    18   am
    11     1    18    1
    12     1     2    1
    13     2     3    1
    14     3     4    1
    15     4     7    1
    16     7     8   ar
    17     8     9   ar
    18     9    10   ar
    19    10    11    1
    20    10    12   ar
    21    12    13    1
    22    12    14   ar
    23     4     5    1
    24     5     6    1
    25    27    22   ar
    26     6     1    1
    27    14     7   ar
    28    18    19    1
    29    11    15    1
@<TRIPOS>MOLECULE
*****
 27 29 0 0 0
SMALL
GASTEIGER

@<TRIPOS>ATOM
      1 C         142.7136  138.1345  163.0020 C.3     1  UNL1        0.0716
      2 C         141.4361  137.6365  163.6105 C.3     1  UNL1        0.0199
      3 C         141.0642  138.0379  165.0071 C.3     1  UNL1        0.0060
      4 C         141.9696  138.9374  165.7952 C.3     1  UNL1        0.0225
      5 C         143.2470  139.4355  165.1867 C.3     1  UNL1        0.0060
      6 C         143.6190  139.0340  163.7901 C.3     1  UNL1        0.0199
      7 C         141.5977  139.3389  167.1917 C.ar    1  UNL1       -0.0201
      8 C         140.2058  139.8116  167.4907 C.ar    1  UNL1       -0.0010
      9 C         139.8339  140.2131  168.8873 C.ar    1  UNL1        0.0386
     10 C         140.8537  140.1420  169.9849 C.ar    1  UNL1        0.1610
     11 O         140.4817  140.5435  171.3815 O.3     1  UNL1       -0.5034
     12 C         142.2455  139.6693  169.6860 C.ar    1  UNL1        0.1732
     13 F         143.2654  139.5981  170.7836 F       1  UNL1       -0.2010
     14 C         142.6175  139.2678  168.2893 C.ar    1  UNL1        0.0285
     15 H         139.6123  140.8387  171.5682 H       1  UNL1        0.2923
     16 O         141.4106  139.4784  160.6576 O.2     1  UNL1       -0.2751
     17 C         142.4340  138.4049  160.4333 C.2     1  UNL1        0.2228
     18 N         143.0855  137.7330  161.6054 N.am    1  UNL1       -0.3060
     19 H         143.7572  137.0284  161.4581 H       1  UNL1        0.1494
     20 C         142.8060  138.0035  159.0366 C.3     1  UNL1        0.0897
     21 C         141.7480  137.9038  157.9780 C.3     1  UNL1        0.0359
     22 C         141.9629  137.0224  156.7834 C.ar    1  UNL1       -0.0217
     23 C         140.8006  136.6363  155.9174 C.ar    1  UNL1       -0.0043
     24 C         141.0156  135.7549  154.7229 C.ar    1  UNL1       -0.0003
     25 C         142.3928  135.2596  154.3944 C.ar    1  UNL1       -0.0000
     26 C         143.5551  135.6456  155.2604 C.ar    1  UNL1       -0.0003
     27 C         143.3401  136.5271  156.4549 C.ar    1  UNL1       -0.0043
@<TRIPOS>BOND
     1    16    17    2
     2    17    20    1
     3    20    21    1
     4    21    22    1
     5    22    23   ar
     6    23    24   ar
     7    24    25   ar
     8    25    26   ar
     9    26    27   ar
    10    17    18   am
    11     1    18    1
    12     1     2    1
    13     2     3    1
    14     3     4    1
    15     4     7    1
    16     7     8   ar
    17     8     9   ar
    18     9    10   ar
    19    10    11    1
    20    10    12   ar
    21    12    13    1
    22    12    14   ar
    23     4     5    1
    24     5     6    1
    25    27    22   ar
    26     6     1    1
    27    14     7   ar
    28    18    19    1
    29    11    15    1
@<TRIPOS>MOLECULE
*****
 27 29 0 0 0
SMALL
GASTEIGER

@<TRIPOS>ATOM
      1 C         143.5353  139.4243  164.3143 C.3     1  UNL1        0.0716
      2 C         143.5318  138.4895  165.4874 C.3     1  UNL1        0.0199
      3 C         143.0318  138.9610  166.8207 C.3     1  UNL1        0.0060
      4 C         142.5353  140.3674  166.9809 C.3     1  UNL1        0.0225
      5 C         142.5388  141.3022  165.8079 C.3     1  UNL1        0.0060
      6 C         143.0388  140.8307  164.4745 C.3     1  UNL1        0.0199
      7 C         142.0354  140.8389  168.3142 C.ar    1  UNL1       -0.0201
      8 C         140.8094  140.2197  168.9172 C.ar    1  UNL1       -0.0010
      9 C         140.3094  140.6912  170.2505 C.ar    1  UNL1        0.0386
     10 C         141.0354  141.7820  170.9808 C.ar    1  UNL1        0.1610
     11 O         140.5353  142.2535  172.3141 O.3     1  UNL1       -0.5034
     12 C         142.2613  142.4012  170.3778 C.ar    1  UNL1        0.1732
     13 F         142.9872  143.4919  171.1080 F       1  UNL1       -0.2010
     14 C         142.7613  141.9297  169.0444 C.ar    1  UNL1        0.0285
     15 H         139.7695  141.8667  172.6908 H       1  UNL1        0.2923
     16 O         141.6962  137.9501  162.4586 O.2     1  UNL1       -0.2751
     17 C         143.1157  138.2157  162.0532 C.2     1  UNL1        0.2228
     18 N         144.0353  138.9528  162.9810 N.am    1  UNL1       -0.3060
     19 H         144.9670  139.1271  162.7149 H       1  UNL1        0.1494
     20 C         143.6157  137.7441  160.7198 C.3     1  UNL1        0.0897
     21 C         143.3511  138.5590  159.4886 C.3     1  UNL1        0.0359
     22 C         142.2371  138.1753  158.5602 C.ar    1  UNL1       -0.0217
     23 C         142.4973  137.2252  157.4290 C.ar    1  UNL1       -0.0043
     24 C         141.3833  136.8415  156.5006 C.ar    1  UNL1       -0.0003
     25 C         140.0093  137.4079  156.7035 C.ar    1  UNL1       -0.0000
     26 C         139.7491  138.3579  157.8347 C.ar    1  UNL1       -0.0003
     27 C         140.8630  138.7416  158.7631 C.ar    1  UNL1       -0.0043
@<TRIPOS>BOND
     1    16    17    2
     2    17    20    1
     3    20    21    1
     4    21    22    1
     5    22    23   ar
     6    23    24   ar
     7    24    25   ar
     8    25    26   ar
     9    26    27   ar
    10    17    18   am
    11     1    18    1
    12     1     2    1
    13     2     3    1
    14     3     4    1
    15     4     7    1
    16     7     8   ar
    17     8     9   ar
    18     9    10   ar
    19    10    11    1
    20    10    12   ar
    21    12    13    1
    22    12    14   ar
    23     4     5    1
    24     5     6    1
    25    27    22   ar
    26     6     1    1
    27    14     7   ar
    28    18    19    1
    29    11    15    1
@<TRIPOS>MOLECULE
*****
 27 29 0 0 0
SMALL
GASTEIGER

@<TRIPOS>ATOM
      1 C         142.6420  139.4493  163.5607 C.3     1  UNL1        0.0716
      2 C         141.4967  140.3402  163.9412 C.3     1  UNL1        0.0199
      3 C         141.1484  140.5378  165.3867 C.3     1  UNL1        0.0060
      4 C         141.9453  139.8446  166.4518 C.3     1  UNL1        0.0225
      5 C         143.0905  138.9537  166.0714 C.3     1  UNL1        0.0060
      6 C         143.4389  138.7560  164.6258 C.3     1  UNL1        0.0199
      7 C         141.5970  140.0422  167.8973 C.ar    1  UNL1       -0.0201
      8 C         142.6855  140.1322  168.9256 C.ar    1  UNL1       -0.0010
      9 C         142.3371  140.3298  170.3711 C.ar    1  UNL1        0.0386
     10 C         140.9004  140.4375  170.7884 C.ar    1  UNL1        0.1610
     11 O         140.5521  140.6352  172.2341 O.3     1  UNL1       -0.5034
     12 C         139.8120  140.3476  169.7603 C.ar    1  UNL1        0.1732
     13 F         138.3752  140.4554  170.1776 F       1  UNL1       -0.2010
     14 C         140.1603  140.1500  168.3147 C.ar    1  UNL1        0.0285
     15 H         141.2320  140.6913  172.8763 H       1  UNL1        0.2923
     16 O         141.3197  137.2662  161.9842 O.2     1  UNL1       -0.2751
     17 C         142.3292  138.1601  161.3269 C.2     1  UNL1        0.2228
     18 N         142.9903  139.2516  162.1152 N.am    1  UNL1       -0.3060
     19 H         143.6529  139.8383  161.6838 H       1  UNL1        0.1494
     20 C         142.6775  137.9624  159.8813 C.3     1  UNL1        0.0897
     21 C         141.8376  138.5986  158.8137 C.3     1  UNL1        0.0359
     22 C         140.7336  139.5417  159.1904 C.ar    1  UNL1       -0.0217
     23 C         141.0303  140.9963  159.4047 C.ar    1  UNL1       -0.0043
     24 C         139.9263  141.9393  159.7814 C.ar    1  UNL1       -0.0003
     25 C         138.5256  141.4277  159.9438 C.ar    1  UNL1       -0.0000
     26 C         138.2289  139.9730  159.7295 C.ar    1  UNL1       -0.0003
     27 C         139.3329  139.0300  159.3528 C.ar    1  UNL1       -0.0043
@<TRIPOS>BOND
     1    16    17    2
     2    17    20    1
     3    20    21    1
     4    21    22    1
     5    22    23   ar
     6    23    24   ar
     7    24    25   ar
     8    25    26   ar
     9    26    27   ar
    10    17    18   am
    11     1    18    1
    12     1     2    1
    13     2     3    1
    14     3     4    1
    15     4     7    1
    16     7     8   ar
    17     8     9   ar
    18     9    10   ar
    19    10    11    1
    20    10    12   ar
    21    12    13    1
    22    12    14   ar
    23     4     5    1
    24     5     6    1
    25    27    22   ar
    26     6     1    1
    27    14     7   ar
    28    18    19    1
    29    11    15    1
@<TRIPOS>MOLECULE
*****
 27 29 0 0 0
SMALL
GASTEIGER

@<TRIPOS>ATOM
      1 C         141.0948  144.5754  162.9775 C.3     1  UNL1        0.0716
      2 C         139.8522  144.8630  163.7670 C.3     1  UNL1        0.0199
      3 C         139.5651  144.0917  165.0210 C.3     1  UNL1        0.0060
      4 C         140.5205  143.0328  165.4857 C.3     1  UNL1        0.0225
      5 C         141.7631  142.7452  164.6963 C.3     1  UNL1        0.0060
      6 C         142.0503  143.5165  163.4421 C.3     1  UNL1        0.0199
      7 C         140.2334  142.2615  166.7397 C.ar    1  UNL1       -0.0201
      8 C         140.6337  142.8211  168.0726 C.ar    1  UNL1       -0.0010
      9 C         140.3466  142.0498  169.3267 C.ar    1  UNL1        0.0386
     10 C         139.6591  140.7189  169.2478 C.ar    1  UNL1        0.1610
     11 O         139.3720  139.9477  170.5020 O.3     1  UNL1       -0.5034
     12 C         139.2588  140.1594  167.9150 C.ar    1  UNL1        0.1732
     13 F         138.5713  138.8285  167.8362 F       1  UNL1       -0.2010
     14 C         139.5459  140.9307  166.6609 C.ar    1  UNL1        0.0285
     15 H         139.6221  140.2972  171.3346 H       1  UNL1        0.2923
     16 O         139.4845  144.0620  160.4990 O.2     1  UNL1       -0.2751
     17 C         140.5768  145.0900  160.4842 C.2     1  UNL1        0.2228
     18 N         141.3820  145.3467  161.7235 N.am    1  UNL1       -0.3060
     19 H         142.0989  146.0213  161.7138 H       1  UNL1        0.1494
     20 C         140.8639  145.8613  159.2301 C.3     1  UNL1        0.0897
     21 C         141.0176  145.1394  157.9243 C.3     1  UNL1        0.0359
     22 C         139.9022  145.1576  156.9215 C.ar    1  UNL1       -0.0217
     23 C         139.1217  143.9068  156.6450 C.ar    1  UNL1       -0.0043
     24 C         138.0064  143.9250  155.6422 C.ar    1  UNL1       -0.0003
     25 C         137.6715  145.1940  154.9159 C.ar    1  UNL1       -0.0000
     26 C         138.4519  146.4448  155.1924 C.ar    1  UNL1       -0.0003
     27 C         139.5672  146.4266  156.1952 C.ar    1  UNL1       -0.0043
@<TRIPOS>BOND
     1    16    17    2
     2    17    20    1
     3    20    21    1
     4    21    22    1
     5    22    23   ar
     6    23    24   ar
     7    24    25   ar
     8    25    26   ar
     9    26    27   ar
    10    17    18   am
    11     1    18    1
    12     1     2    1
    13     2     3    1
    14     3     4    1
    15     4     7    1
    16     7     8   ar
    17     8     9   ar
    18     9    10   ar
    19    10    11    1
    20    10    12   ar
    21    12    13    1
    22    12    14   ar
    23     4     5    1
    24     5     6    1
    25    27    22   ar
    26     6     1    1
    27    14     7   ar
    28    18    19    1
    29    11    15    1
@<TRIPOS>MOLECULE
*****
 27 29 0 0 0
SMALL
GASTEIGER

@<TRIPOS>ATOM
      1 C         140.4524  138.9099  160.4684 C.3     1  UNL1        0.0716
      2 C         141.1775  139.9493  161.2709 C.3     1  UNL1        0.0199
      3 C         140.8946  140.0975  162.7365 C.3     1  UNL1        0.0060
      4 C         139.8867  139.2064  163.3996 C.3     1  UNL1        0.0225
      5 C         139.1616  138.1670  162.5973 C.3     1  UNL1        0.0060
      6 C         139.4445  138.0187  161.1316 C.3     1  UNL1        0.0199
      7 C         139.6038  139.3546  164.8652 C.ar    1  UNL1       -0.0201
      8 C         140.5154  140.1786  165.7255 C.ar    1  UNL1       -0.0010
      9 C         140.2325  140.3268  167.1911 C.ar    1  UNL1        0.0386
     10 C         139.0380  139.6510  167.7965 C.ar    1  UNL1        0.1610
     11 O         138.7551  139.7993  169.2621 O.3     1  UNL1       -0.5034
     12 C         138.1264  138.8271  166.9363 C.ar    1  UNL1        0.1732
     13 F         136.9318  138.1514  167.5416 F       1  UNL1       -0.2010
     14 C         138.4092  138.6788  165.4706 C.ar    1  UNL1        0.0285
     15 H         139.3246  140.3140  169.7995 H       1  UNL1        0.2923
     16 O         142.8877  137.4152  159.5545 O.2     1  UNL1       -0.2751
     17 C         141.9529  138.0143  158.5459 C.2     1  UNL1        0.2228
     18 N         140.7353  138.7617  159.0028 N.am    1  UNL1       -0.3060
     19 H         140.1218  139.1549  158.3408 H       1  UNL1        0.1494
     20 C         142.2359  137.8661  157.0803 C.3     1  UNL1        0.0897
     21 C         143.2593  136.8752  156.6105 C.3     1  UNL1        0.0359
     22 C         142.8657  135.4480  156.3685 C.ar    1  UNL1       -0.0217
     23 C         143.5507  134.3438  157.1177 C.ar    1  UNL1       -0.0043
     24 C         143.1571  132.9168  156.8757 C.ar    1  UNL1       -0.0003
     25 C         142.0786  132.5940  155.8844 C.ar    1  UNL1       -0.0000
     26 C         141.3936  133.6982  155.1352 C.ar    1  UNL1       -0.0003
     27 C         141.7872  135.1253  155.3772 C.ar    1  UNL1       -0.0043
@<TRIPOS>BOND
     1    16    17    2
     2    17    20    1
     3    20    21    1
     4    21    22    1
     5    22    23   ar
     6    23    24   ar
     7    24    25   ar
     8    25    26   ar
     9    26    27   ar
    10    17    18   am
    11     1    18    1
    12     1     2    1
    13     2     3    1
    14     3     4    1
    15     4     7    1
    16     7     8   ar
    17     8     9   ar
    18     9    10   ar
    19    10    11    1
    20    10    12   ar
    21    12    13    1
    22    12    14   ar
    23     4     5    1
    24     5     6    1
    25    27    22   ar
    26     6     1    1
    27    14     7   ar
    28    18    19    1
    29    11    15    1
@<TRIPOS>MOLECULE
*****
 27 29 0 0 0
SMALL
GASTEIGER

@<TRIPOS>ATOM
      1 C         139.4933  141.0351  162.9889 C.3     1  UNL1        0.0716
      2 C         140.6903  141.7585  163.5311 C.3     1  UNL1        0.0199
      3 C         140.8482  141.9430  165.0113 C.3     1  UNL1        0.0060
      4 C         139.8091  141.4041  165.9493 C.3     1  UNL1        0.0225
      5 C         138.6121  140.6808  165.4072 C.3     1  UNL1        0.0060
      6 C         138.4541  140.4963  163.9269 C.3     1  UNL1        0.0199
      7 C         139.9670  141.5886  167.4295 C.ar    1  UNL1       -0.0201
      8 C         139.7312  140.4347  168.3586 C.ar    1  UNL1       -0.0010
      9 C         139.8891  140.6192  169.8387 C.ar    1  UNL1        0.0386
     10 C         140.2827  141.9575  170.3900 C.ar    1  UNL1        0.1610
     11 O         140.4406  142.1420  171.8703 O.3     1  UNL1       -0.5034
     12 C         140.5185  143.1114  169.4610 C.ar    1  UNL1        0.1732
     13 F         140.9122  144.4497  170.0123 F       1  UNL1       -0.2010
     14 C         140.3607  142.9269  167.9808 C.ar    1  UNL1        0.0285
     15 H         140.2933  141.4212  172.4505 H       1  UNL1        0.2923
     16 O         137.9111  143.0203  161.3903 O.2     1  UNL1       -0.2751
     17 C         138.5443  141.8432  160.7094 C.2     1  UNL1        0.2228
     18 N         139.3354  140.8506  161.5087 N.am    1  UNL1       -0.3060
     19 H         139.7510  140.0781  161.0618 H       1  UNL1        0.1494
     20 C         138.3864  141.6587  159.2292 C.3     1  UNL1        0.0897
     21 C         139.5106  142.0198  158.3042 C.3     1  UNL1        0.0359
     22 C         139.6402  143.4243  157.7936 C.ar    1  UNL1       -0.0217
     23 C         140.2757  144.4784  158.6509 C.ar    1  UNL1       -0.0043
     24 C         140.4052  145.8828  158.1402 C.ar    1  UNL1       -0.0003
     25 C         139.8992  146.2331  156.7723 C.ar    1  UNL1       -0.0000
     26 C         139.2636  145.1791  155.9150 C.ar    1  UNL1       -0.0003
     27 C         139.1341  143.7746  156.4257 C.ar    1  UNL1       -0.0043
@<TRIPOS>BOND
     1    16    17    2
     2    17    20    1
     3    20    21    1
     4    21    22    1
     5    22    23   ar
     6    23    24   ar
     7    24    25   ar
     8    25    26   ar
     9    26    27   ar
    10    17    18   am
    11     1    18    1
    12     1     2    1
    13     2     3    1
    14     3     4    1
    15     4     7    1
    16     7     8   ar
    17     8     9   ar
    18     9    10   ar
    19    10    11    1
    20    10    12   ar
    21    12    13    1
    22    12    14   ar
    23     4     5    1
    24     5     6    1
    25    27    22   ar
    26     6     1    1
    27    14     7   ar
    28    18    19    1
    29    11    15    1
