@<TRIPOS>MOLECULE
*****
 41 43 0 0 0
SMALL
GASTEIGER

@<TRIPOS>ATOM
      1 C         138.5377  139.1797  166.8639 C.2     1  UNL1        0.2312
      2 O         137.4334  138.4451  167.5645 O.2     1  UNL1       -0.2745
      3 N         139.5164  139.9951  167.6559 N.am    1  UNL1       -0.2454
      4 C         138.7421  140.2700  163.0534 C.3     1  UNL1        0.0927
      5 C         138.9144  138.9376  162.3863 C.3     1  UNL1        0.0777
      6 N         138.9611  137.6860  163.2116 N.3     1  UNL1       -0.2967
      7 C         138.8356  137.7667  164.7041 C.3     1  UNL1        0.0777
      8 C         138.6633  139.0990  165.3713 C.3     1  UNL1        0.0933
      9 C         138.6166  140.3506  164.5460 C.3     1  UNL1        0.0210
     10 H         139.8557  137.2370  163.0152 H       1  UNL1        0.1233
     11 N         139.9661  142.2393  161.8815 N.am    1  UNL1       -0.3035
     12 C         138.6954  141.5216  162.2281 C.2     1  UNL1        0.2234
     13 O         137.3780  142.0555  161.7493 O.2     1  UNL1       -0.2751
     14 H         140.8308  141.8889  162.1958 H       1  UNL1        0.1495
     15 C         139.9194  143.4910  161.0562 C.3     1  UNL1        0.1011
     16 C         139.6963  144.8182  161.7186 C.3     1  UNL1        0.0221
     17 C         140.1175  145.0256  163.1432 C.3     1  UNL1        0.0017
     18 C         139.1314  144.8191  164.2545 C.3     1  UNL1        0.0001
     19 C         141.5248  145.4395  163.4566 C.3     1  UNL1        0.0001
     20 C         140.0956  143.4154  159.5685 C.3     1  UNL1        0.1615
     21 O         138.8971  143.4631  158.6679 O.3     1  UNL1       -0.3520
     22 C         138.8395  140.8686  158.5467 C.3     1  UNL1        0.0346
     23 C         138.1854  142.1954  158.2987 C.3     1  UNL1        0.1423
     24 C         140.6208  140.7297  166.9553 C.ar    1  UNL1        0.1404
     25 C         141.8125  139.9784  166.4402 C.ar    1  UNL1        0.0712
     26 C         142.9168  140.7131  165.7396 C.ar    1  UNL1        0.1388
     27 C         142.8294  142.1991  165.5542 C.ar    1  UNL1        0.0307
     28 C         141.6376  142.9503  166.0693 C.ar    1  UNL1        0.0990
     29 N         140.5333  142.2156  166.7699 N.ar    1  UNL1       -0.2289
     30 C         143.9337  142.9337  164.8536 C.3     1  UNL1        0.0269
     31 C         144.8882  143.7813  165.6413 C.3     1  UNL1        0.0048
     32 C         144.0834  142.8208  163.3654 C.3     1  UNL1        0.0048
     33 O         144.1085  139.9618  165.2245 O.3     1  UNL1       -0.4755
     34 C         143.9319  138.9016  164.1782 C.3     1  UNL1        0.2080
     35 C         144.0928  139.2457  162.7271 C.3     1  UNL1        0.0793
     36 C         143.8155  138.2121  161.6760 C.3     1  UNL1        0.1461
     37 O         144.0744  138.5232  160.2316 O.3     1  UNL1       -0.3510
     38 C         143.7327  139.8768  159.6830 C.3     1  UNL1        0.1741
     39 C         139.3909  140.0758  169.1485 C.3     1  UNL1        0.0812
     40 C         138.5507  140.2961  170.3714 C.3     1  UNL1        0.0219
     41 C         140.0136  139.9954  170.5108 C.3     1  UNL1        0.0219
@<TRIPOS>BOND
     1    22    23    1
     2    23    21    1
     3    21    20    1
     4    15    20    1
     5    15    16    1
     6    16    17    1
     7    17    18    1
     8    17    19    1
     9    15    11    1
    10    11    12   am
    11    12    13    2
    12     4    12    1
    13     4     5    1
    14     5     6    1
    15     6     7    1
    16     7     8    1
    17     8     1    1
    18     1     2    2
    19     1     3   am
    20     3    24    1
    21    24    25   ar
    22    25    26   ar
    23    26    33    1
    24    33    34    1
    25    34    35    1
    26    35    36    1
    27    36    37    1
    28    37    38    1
    29    26    27   ar
    30    27    30    1
    31    30    31    1
    32    30    32    1
    33    27    28   ar
    34    28    29   ar
    35     3    39    1
    36    39    40    1
    37    40    41    1
    38     8     9    1
    39     9     4    1
    40    29    24   ar
    41    41    39    1
    42    11    14    1
    43     6    10    1
@<TRIPOS>MOLECULE
*****
 41 43 0 0 0
SMALL
GASTEIGER

@<TRIPOS>ATOM
      1 C         143.4989  138.7644  166.4498 C.2     1  UNL1        0.2312
      2 O         144.2773  137.6656  167.1107 O.2     1  UNL1       -0.2745
      3 N         142.6838  139.7105  167.2807 N.am    1  UNL1       -0.2454
      4 C         142.3427  138.7921  162.6535 C.3     1  UNL1        0.0927
      5 C         143.6092  139.2221  161.9746 C.3     1  UNL1        0.0777
      6 N         144.8390  139.4996  162.7874 N.3     1  UNL1       -0.2967
      7 C         144.8022  139.3470  164.2791 C.3     1  UNL1        0.0777
      8 C         143.5357  138.9170  164.9580 C.3     1  UNL1        0.0933
      9 C         142.3059  138.6395  164.1452 C.3     1  UNL1        0.0210
     10 H         145.1063  140.4653  162.5967 H       1  UNL1        0.1233
     11 N         140.7560  139.4096  160.6911 N.am    1  UNL1       -0.3035
     12 C         141.1129  138.5147  161.8407 C.2     1  UNL1        0.2234
     13 O         140.2400  137.3423  162.1774 O.2     1  UNL1       -0.2751
     14 H         141.3289  140.1791  160.4700 H       1  UNL1        0.1495
     15 C         139.5262  139.1322  159.8782 C.3     1  UNL1        0.1011
     16 C         138.1841  139.5878  160.3693 C.3     1  UNL1        0.0221
     17 C         138.0887  140.7173  161.3517 C.3     1  UNL1        0.0017
     18 C         137.8595  140.4293  162.8058 C.3     1  UNL1        0.0001
     19 C         138.2227  142.1350  160.8799 C.3     1  UNL1        0.0001
     20 C         139.6386  138.3992  158.5744 C.3     1  UNL1        0.1615
     21 O         138.9508  138.9323  157.3526 O.3     1  UNL1       -0.3520
     22 C         139.1539  137.0387  155.5854 C.3     1  UNL1        0.0346
     23 C         139.3729  138.4662  155.9908 C.3     1  UNL1        0.1423
     24 C         141.9054  140.8093  166.6198 C.ar    1  UNL1        0.1404
     25 C         142.6267  141.9425  165.9520 C.ar    1  UNL1        0.0712
     26 C         141.8483  143.0413  165.2911 C.ar    1  UNL1        0.1388
     27 C         140.3487  143.0069  165.2980 C.ar    1  UNL1        0.0307
     28 C         139.6275  141.8738  165.9657 C.ar    1  UNL1        0.0990
     29 N         140.4059  140.7750  166.6266 N.ar    1  UNL1       -0.2289
     30 C         139.5703  144.1057  164.6371 C.3     1  UNL1        0.0269
     31 C         138.6140  144.9357  165.4411 C.3     1  UNL1        0.0048
     32 C         139.7484  144.3745  163.1721 C.3     1  UNL1        0.0048
     33 O         142.5695  144.1744  164.6234 O.3     1  UNL1       -0.4755
     34 C         143.7771  143.8999  163.7771 C.3     1  UNL1        0.2080
     35 C         143.7114  142.8708  162.6879 C.3     1  UNL1        0.0793
     36 C         143.3098  143.2726  161.2996 C.3     1  UNL1        0.1461
     37 O         142.5645  144.5551  161.0760 O.3     1  UNL1       -0.3510
     38 C         141.5575  144.6541  159.9688 C.3     1  UNL1        0.1741
     39 C         142.6470  139.5579  168.7725 C.3     1  UNL1        0.0812
     40 C         142.4735  138.6935  169.9859 C.3     1  UNL1        0.0219
     41 C         142.7569  140.1580  170.1428 C.3     1  UNL1        0.0219
@<TRIPOS>BOND
     1    22    23    1
     2    23    21    1
     3    21    20    1
     4    15    20    1
     5    15    16    1
     6    16    17    1
     7    17    18    1
     8    17    19    1
     9    15    11    1
    10    11    12   am
    11    12    13    2
    12     4    12    1
    13     4     5    1
    14     5     6    1
    15     6     7    1
    16     7     8    1
    17     8     1    1
    18     1     2    2
    19     1     3   am
    20     3    24    1
    21    24    25   ar
    22    25    26   ar
    23    26    33    1
    24    33    34    1
    25    34    35    1
    26    35    36    1
    27    36    37    1
    28    37    38    1
    29    26    27   ar
    30    27    30    1
    31    30    31    1
    32    30    32    1
    33    27    28   ar
    34    28    29   ar
    35     3    39    1
    36    39    40    1
    37    40    41    1
    38     8     9    1
    39     9     4    1
    40    29    24   ar
    41    41    39    1
    42    11    14    1
    43     6    10    1
@<TRIPOS>MOLECULE
*****
 41 43 0 0 0
SMALL
GASTEIGER

@<TRIPOS>ATOM
      1 C         142.8619  138.6977  166.3303 C.2     1  UNL1        0.2312
      2 O         143.8774  137.8678  167.0584 O.2     1  UNL1       -0.2745
      3 N         142.2377  139.8825  167.0061 N.am    1  UNL1       -0.2454
      4 C         142.6609  138.7473  162.3671 C.3     1  UNL1        0.0927
      5 C         141.6881  137.6329  162.1187 C.3     1  UNL1        0.0777
      6 N         141.1065  136.8734  163.2741 N.3     1  UNL1       -0.2967
      7 C         141.4978  137.2283  164.6780 C.3     1  UNL1        0.0777
      8 C         142.4706  138.3427  164.9264 C.3     1  UNL1        0.0933
      9 C         143.0521  139.1022  163.7710 C.3     1  UNL1        0.0210
     10 H         141.3556  135.8937  163.1378 H       1  UNL1        0.1233
     11 N         142.5879  140.7712  160.7397 N.am    1  UNL1       -0.3035
     12 C         143.2424  139.5067  161.2117 C.2     1  UNL1        0.2234
     13 O         144.4784  139.0017  160.5282 O.2     1  UNL1       -0.2751
     14 H         141.7767  141.1026  161.1883 H       1  UNL1        0.1495
     15 C         143.1695  141.5306  159.5843 C.3     1  UNL1        0.1011
     16 C         142.9062  141.0759  158.1793 C.3     1  UNL1        0.0221
     17 C         143.7998  141.5311  157.0638 C.3     1  UNL1        0.0017
     18 C         145.1053  140.8350  156.8171 C.3     1  UNL1        0.0001
     19 C         143.3878  142.6825  156.1951 C.3     1  UNL1        0.0001
     20 C         144.0142  142.7447  159.8338 C.3     1  UNL1        0.1615
     21 O         145.1630  142.6743  160.7958 O.3     1  UNL1       -0.3520
     22 C         145.5887  141.7718  163.1946 C.3     1  UNL1        0.0346
     23 C         144.9096  142.7408  162.2727 C.3     1  UNL1        0.1423
     24 C         141.2223  140.7123  166.2780 C.ar    1  UNL1        0.1404
     25 C         141.5889  142.0785  165.7786 C.ar    1  UNL1        0.0712
     26 C         140.5734  142.9083  165.0505 C.ar    1  UNL1        0.1388
     27 C         139.1913  142.3720  164.8218 C.ar    1  UNL1        0.0307
     28 C         138.8247  141.0060  165.3212 C.ar    1  UNL1        0.0990
     29 N         139.8402  140.1761  166.0493 N.ar    1  UNL1       -0.2289
     30 C         138.1758  143.2019  164.0937 C.3     1  UNL1        0.0269
     31 C         137.7839  142.8465  162.6901 C.3     1  UNL1        0.0048
     32 C         137.5523  144.3872  164.7692 C.3     1  UNL1        0.0048
     33 O         140.9400  144.2744  164.5511 O.3     1  UNL1       -0.4755
     34 C         141.3509  144.4649  163.1210 C.3     1  UNL1        0.2080
     35 C         140.6371  145.4668  162.2628 C.3     1  UNL1        0.0793
     36 C         140.4626  145.2084  160.7955 C.3     1  UNL1        0.1461
     37 O         141.6216  145.3849  159.8598 O.3     1  UNL1       -0.3510
     38 C         141.4658  145.0612  158.4035 C.3     1  UNL1        0.1741
     39 C         142.6291  140.2374  168.4100 C.3     1  UNL1        0.0812
     40 C         143.1901  141.2221  169.3926 C.3     1  UNL1        0.0219
     41 C         142.7457  139.8676  169.8590 C.3     1  UNL1        0.0219
@<TRIPOS>BOND
     1    22    23    1
     2    23    21    1
     3    21    20    1
     4    15    20    1
     5    15    16    1
     6    16    17    1
     7    17    18    1
     8    17    19    1
     9    15    11    1
    10    11    12   am
    11    12    13    2
    12     4    12    1
    13     4     5    1
    14     5     6    1
    15     6     7    1
    16     7     8    1
    17     8     1    1
    18     1     2    2
    19     1     3   am
    20     3    24    1
    21    24    25   ar
    22    25    26   ar
    23    26    33    1
    24    33    34    1
    25    34    35    1
    26    35    36    1
    27    36    37    1
    28    37    38    1
    29    26    27   ar
    30    27    30    1
    31    30    31    1
    32    30    32    1
    33    27    28   ar
    34    28    29   ar
    35     3    39    1
    36    39    40    1
    37    40    41    1
    38     8     9    1
    39     9     4    1
    40    29    24   ar
    41    41    39    1
    42    11    14    1
    43     6    10    1
@<TRIPOS>MOLECULE
*****
 41 43 0 0 0
SMALL
GASTEIGER

@<TRIPOS>ATOM
      1 C         143.5234  138.7837  166.3765 C.2     1  UNL1        0.2312
      2 O         144.3187  137.6908  167.0270 O.2     1  UNL1       -0.2745
      3 N         142.6793  139.6976  167.2145 N.am    1  UNL1       -0.2454
      4 C         142.3973  138.8804  162.5722 C.3     1  UNL1        0.0927
      5 C         143.6698  139.3204  161.9111 C.3     1  UNL1        0.0777
      6 N         144.8935  139.5815  162.7384 N.3     1  UNL1       -0.2967
      7 C         144.8447  139.4026  164.2268 C.3     1  UNL1        0.0777
      8 C         143.5722  138.9626  164.8880 C.3     1  UNL1        0.0933
      9 C         142.3485  138.7015  164.0607 C.3     1  UNL1        0.0210
     10 H         145.1637  140.5500  162.5669 H       1  UNL1        0.1233
     11 N         140.7837  139.5780  160.6592 N.am    1  UNL1       -0.3035
     12 C         141.1737  138.6193  161.7449 C.2     1  UNL1        0.2234
     13 O         140.3399  137.3994  162.0033 O.2     1  UNL1       -0.2751
     14 H         141.3309  140.3786  160.4896 H       1  UNL1        0.1495
     15 C         139.5600  139.3169  159.8319 C.3     1  UNL1        0.1011
     16 C         139.6571  138.4748  158.5944 C.3     1  UNL1        0.0221
     17 C         140.7873  138.6851  157.6308 C.3     1  UNL1        0.0017
     18 C         140.8477  139.9374  156.8074 C.3     1  UNL1        0.0001
     19 C         141.8572  137.6430  157.4908 C.3     1  UNL1        0.0001
     20 C         138.2394  139.8978  160.2422 C.3     1  UNL1        0.1615
     21 O         138.1949  141.1141  161.1189 O.3     1  UNL1       -0.3520
     22 C         138.0989  139.8126  163.3654 C.3     1  UNL1        0.0346
     23 C         137.7133  141.0007  162.5349 C.3     1  UNL1        0.1423
     24 C         141.8840  140.7904  166.5640 C.ar    1  UNL1        0.1404
     25 C         142.5876  141.9405  165.9064 C.ar    1  UNL1        0.0712
     26 C         141.7923  143.0333  165.2558 C.ar    1  UNL1        0.1388
     27 C         140.2934  142.9761  165.2629 C.ar    1  UNL1        0.0307
     28 C         139.5898  141.8261  165.9205 C.ar    1  UNL1        0.0990
     29 N         140.3851  140.7333  166.5710 N.ar    1  UNL1       -0.2289
     30 C         139.4980  144.0690  164.6124 C.3     1  UNL1        0.0269
     31 C         139.5625  144.2606  163.1261 C.3     1  UNL1        0.0048
     32 C         138.6383  144.9702  165.4483 C.3     1  UNL1        0.0048
     33 O         142.4959  144.1833  164.5983 O.3     1  UNL1       -0.4755
     34 C         143.6348  143.9263  163.6565 C.3     1  UNL1        0.2080
     35 C         143.4627  142.9684  162.5152 C.3     1  UNL1        0.0793
     36 C         142.7228  143.3957  161.2824 C.3     1  UNL1        0.1461
     37 O         141.6955  142.4888  160.6721 O.3     1  UNL1       -0.3510
     38 C         140.8204  142.9876  159.5606 C.3     1  UNL1        0.1741
     39 C         142.6304  139.5187  168.7030 C.3     1  UNL1        0.0812
     40 C         142.5197  138.6225  169.9007 C.3     1  UNL1        0.0219
     41 C         142.6566  140.1050  170.0834 C.3     1  UNL1        0.0219
@<TRIPOS>BOND
     1    22    23    1
     2    23    21    1
     3    21    20    1
     4    15    20    1
     5    15    16    1
     6    16    17    1
     7    17    18    1
     8    17    19    1
     9    15    11    1
    10    11    12   am
    11    12    13    2
    12     4    12    1
    13     4     5    1
    14     5     6    1
    15     6     7    1
    16     7     8    1
    17     8     1    1
    18     1     2    2
    19     1     3   am
    20     3    24    1
    21    24    25   ar
    22    25    26   ar
    23    26    33    1
    24    33    34    1
    25    34    35    1
    26    35    36    1
    27    36    37    1
    28    37    38    1
    29    26    27   ar
    30    27    30    1
    31    30    31    1
    32    30    32    1
    33    27    28   ar
    34    28    29   ar
    35     3    39    1
    36    39    40    1
    37    40    41    1
    38     8     9    1
    39     9     4    1
    40    29    24   ar
    41    41    39    1
    42    11    14    1
    43     6    10    1
@<TRIPOS>MOLECULE
*****
 41 43 0 0 0
SMALL
GASTEIGER

@<TRIPOS>ATOM
      1 C         142.8577  138.8257  166.1784 C.2     1  UNL1        0.2312
      2 O         143.8621  138.0326  166.9608 O.2     1  UNL1       -0.2745
      3 N         142.2310  140.0470  166.7830 N.am    1  UNL1       -0.2454
      4 C         142.7337  138.6324  162.2164 C.3     1  UNL1        0.0927
      5 C         141.7244  137.5408  162.0173 C.3     1  UNL1        0.0777
      6 N         141.0929  136.8775  163.2052 N.3     1  UNL1       -0.2967
      7 C         141.4706  137.3057  164.5922 C.3     1  UNL1        0.0777
      8 C         142.4799  138.3973  164.7913 C.3     1  UNL1        0.0933
      9 C         143.1115  139.0606  163.6034 C.3     1  UNL1        0.0210
     10 H         141.3073  135.8827  163.1356 H       1  UNL1        0.1233
     11 N         142.6850  140.4585  160.3690 N.am    1  UNL1       -0.3035
     12 C         143.3653  139.2957  161.0285 C.2     1  UNL1        0.2234
     13 O         144.6773  138.7962  160.5001 O.2     1  UNL1       -0.2751
     14 H         141.8239  140.7863  160.7159 H       1  UNL1        0.1495
     15 C         143.3165  141.1218  159.1811 C.3     1  UNL1        0.1011
     16 C         143.2743  140.4539  157.8387 C.3     1  UNL1        0.0221
     17 C         142.2402  139.4049  157.5551 C.3     1  UNL1        0.0017
     18 C         140.8392  139.8088  157.2029 C.3     1  UNL1        0.0001
     19 C         142.6072  137.9521  157.6236 C.3     1  UNL1        0.0001
     20 C         143.9903  142.4530  159.3356 C.3     1  UNL1        0.1615
     21 O         143.1670  143.7018  159.4482 O.3     1  UNL1       -0.3520
     22 C         140.8674  143.6081  158.2428 C.3     1  UNL1        0.0346
     23 C         142.2764  144.1176  158.3151 C.3     1  UNL1        0.1423
     24 C         141.2266  140.8401  166.0006 C.ar    1  UNL1        0.1404
     25 C         141.6834  141.9527  165.1041 C.ar    1  UNL1        0.0712
     26 C         140.6790  142.7457  164.3217 C.ar    1  UNL1        0.1388
     27 C         139.2178  142.4263  164.4358 C.ar    1  UNL1        0.0307
     28 C         138.7611  141.3137  165.3323 C.ar    1  UNL1        0.0990
     29 N         139.7655  140.5207  166.1147 N.ar    1  UNL1       -0.2289
     30 C         138.2133  143.2193  163.6534 C.3     1  UNL1        0.0269
     31 C         137.8488  142.8013  162.2598 C.3     1  UNL1        0.0048
     32 C         137.5735  144.4306  164.2647 C.3     1  UNL1        0.0048
     33 O         141.1357  143.8582  163.4252 O.3     1  UNL1       -0.4755
     34 C         141.9559  144.9830  163.9840 C.3     1  UNL1        0.2080
     35 C         143.4535  144.9173  163.9312 C.3     1  UNL1        0.0793
     36 C         144.1326  144.1600  162.8288 C.3     1  UNL1        0.1461
     37 O         144.1285  142.6600  162.8362 O.3     1  UNL1       -0.3510
     38 C         145.4249  141.9063  162.7987 C.3     1  UNL1        0.1741
     39 C         142.6088  140.4753  168.1701 C.3     1  UNL1        0.0812
     40 C         142.7425  140.1704  169.6326 C.3     1  UNL1        0.0219
     41 C         143.1293  141.5221  169.1099 C.3     1  UNL1        0.0219
@<TRIPOS>BOND
     1    22    23    1
     2    23    21    1
     3    21    20    1
     4    15    20    1
     5    15    16    1
     6    16    17    1
     7    17    18    1
     8    17    19    1
     9    15    11    1
    10    11    12   am
    11    12    13    2
    12     4    12    1
    13     4     5    1
    14     5     6    1
    15     6     7    1
    16     7     8    1
    17     8     1    1
    18     1     2    2
    19     1     3   am
    20     3    24    1
    21    24    25   ar
    22    25    26   ar
    23    26    33    1
    24    33    34    1
    25    34    35    1
    26    35    36    1
    27    36    37    1
    28    37    38    1
    29    26    27   ar
    30    27    30    1
    31    30    31    1
    32    30    32    1
    33    27    28   ar
    34    28    29   ar
    35     3    39    1
    36    39    40    1
    37    40    41    1
    38     8     9    1
    39     9     4    1
    40    29    24   ar
    41    41    39    1
    42    11    14    1
    43     6    10    1
@<TRIPOS>MOLECULE
*****
 41 43 0 0 0
SMALL
GASTEIGER

@<TRIPOS>ATOM
      1 C         144.3218  143.0828  165.7357 C.2     1  UNL1        0.2312
      2 O         145.1371  144.1326  166.4309 O.2     1  UNL1       -0.2745
      3 N         143.3749  142.2257  166.5223 N.am    1  UNL1       -0.2454
      4 C         143.5928  143.3309  161.8425 C.3     1  UNL1        0.0927
      5 C         144.7166  142.5049  161.2905 C.3     1  UNL1        0.0777
      6 N         145.7088  141.8716  162.2202 N.3     1  UNL1       -0.2967
      7 C         145.5772  142.0642  163.7019 C.3     1  UNL1        0.0777
      8 C         144.4534  142.8902  164.2539 C.3     1  UNL1        0.0933
      9 C         143.4612  143.5235  163.3242 C.3     1  UNL1        0.0210
     10 H         146.6277  142.2280  161.9574 H       1  UNL1        0.1233
     11 N         142.6396  143.6496  159.4467 N.am    1  UNL1       -0.3035
     12 C         142.6005  143.9642  160.9128 C.2     1  UNL1        0.2234
     13 O         141.5692  144.9122  161.4492 O.2     1  UNL1       -0.2751
     14 H         143.3165  143.0275  159.0946 H       1  UNL1        0.1495
     15 C         141.6473  144.2830  158.5170 C.3     1  UNL1        0.1011
     16 C         142.0024  145.5448  157.7877 C.3     1  UNL1        0.0221
     17 C         141.6235  145.7094  156.3456 C.3     1  UNL1        0.0017
     18 C         142.4397  145.0473  155.2755 C.3     1  UNL1        0.0001
     19 C         140.4284  146.5362  155.9738 C.3     1  UNL1        0.0001
     20 C         140.3002  143.6546  158.3167 C.3     1  UNL1        0.1615
     21 O         139.4702  143.2652  159.5039 O.3     1  UNL1       -0.3520
     22 C         140.3363  141.1381  160.7186 C.3     1  UNL1        0.0346
     23 C         139.3083  141.8180  159.8636 C.3     1  UNL1        0.1423
     24 C         142.5596  141.1760  165.8271 C.ar    1  UNL1        0.1404
     25 C         141.2211  141.5272  165.2481 C.ar    1  UNL1        0.0712
     26 C         140.4058  140.4775  164.5530 C.ar    1  UNL1        0.1388
     27 C         140.9289  139.0764  164.4368 C.ar    1  UNL1        0.0307
     28 C         142.2673  138.7252  165.0158 C.ar    1  UNL1        0.0990
     29 N         143.0827  139.7750  165.7109 N.ar    1  UNL1       -0.2289
     30 C         140.1136  138.0267  163.7417 C.3     1  UNL1        0.0269
     31 C         140.4080  137.6715  162.3144 C.3     1  UNL1        0.0048
     32 C         139.0038  137.3320  164.4739 C.3     1  UNL1        0.0048
     33 O         139.0673  140.8287  163.9740 O.3     1  UNL1       -0.4755
     34 C         138.1325  141.7222  164.7341 C.3     1  UNL1        0.2080
     35 C         137.3679  142.7935  164.0145 C.3     1  UNL1        0.0793
     36 C         138.0246  143.5731  162.9140 C.3     1  UNL1        0.1461
     37 O         138.7428  144.8524  163.2265 O.3     1  UNL1       -0.3510
     38 C         139.7228  144.9045  164.3609 C.3     1  UNL1        0.1741
     39 C         143.2433  142.4184  168.0041 C.3     1  UNL1        0.0812
     40 C         142.3939  142.7081  169.2060 C.3     1  UNL1        0.0219
     41 C         143.8646  142.4623  169.3686 C.3     1  UNL1        0.0219
@<TRIPOS>BOND
     1    22    23    1
     2    23    21    1
     3    21    20    1
     4    15    20    1
     5    15    16    1
     6    16    17    1
     7    17    18    1
     8    17    19    1
     9    15    11    1
    10    11    12   am
    11    12    13    2
    12     4    12    1
    13     4     5    1
    14     5     6    1
    15     6     7    1
    16     7     8    1
    17     8     1    1
    18     1     2    2
    19     1     3   am
    20     3    24    1
    21    24    25   ar
    22    25    26   ar
    23    26    33    1
    24    33    34    1
    25    34    35    1
    26    35    36    1
    27    36    37    1
    28    37    38    1
    29    26    27   ar
    30    27    30    1
    31    30    31    1
    32    30    32    1
    33    27    28   ar
    34    28    29   ar
    35     3    39    1
    36    39    40    1
    37    40    41    1
    38     8     9    1
    39     9     4    1
    40    29    24   ar
    41    41    39    1
    42    11    14    1
    43     6    10    1
@<TRIPOS>MOLECULE
*****
 41 43 0 0 0
SMALL
GASTEIGER

@<TRIPOS>ATOM
      1 C         141.2480  138.2466  163.9158 C.2     1  UNL1        0.2312
      2 O         141.2182  136.9114  164.5987 O.2     1  UNL1       -0.2745
      3 N         140.3293  139.3420  164.3699 N.am    1  UNL1       -0.2454
      4 C         142.7427  138.3690  160.2414 C.3     1  UNL1        0.0927
      5 C         144.0933  138.9661  160.5046 C.3     1  UNL1        0.0777
      6 N         144.4955  139.3235  161.9048 N.3     1  UNL1       -0.2967
      7 C         143.5470  139.0836  163.0419 C.3     1  UNL1        0.0777
      8 C         142.1965  138.4865  162.7787 C.3     1  UNL1        0.0933
      9 C         141.7943  138.1292  161.3785 C.3     1  UNL1        0.0210
     10 H         144.7085  140.3210  161.9045 H       1  UNL1        0.1233
     11 N         143.2922  137.2638  157.9553 N.am    1  UNL1       -0.3035
     12 C         142.3406  138.0116  158.8412 C.2     1  UNL1        0.2234
     13 O         140.9867  138.4022  158.3270 O.2     1  UNL1       -0.2751
     14 H         144.1808  137.0074  158.2928 H       1  UNL1        0.1495
     15 C         142.8901  136.9064  156.5551 C.3     1  UNL1        0.1011
     16 C         141.8777  135.8251  156.3184 C.3     1  UNL1        0.0221
     17 C         142.3302  134.4289  156.0088 C.3     1  UNL1        0.0017
     18 C         141.4120  133.4847  155.2909 C.3     1  UNL1        0.0001
     19 C         143.7010  133.9768  156.4172 C.3     1  UNL1        0.0001
     20 C         143.5002  137.6303  155.3917 C.3     1  UNL1        0.1615
     21 O         144.8703  138.2283  155.5152 O.3     1  UNL1       -0.3520
     22 C         144.8844  140.5039  156.7687 C.3     1  UNL1        0.0346
     23 C         145.0425  139.7182  155.5007 C.3     1  UNL1        0.1423
     24 C         140.3591  140.6772  163.6871 C.ar    1  UNL1        0.1404
     25 C         141.1094  141.8194  164.3056 C.ar    1  UNL1        0.0712
     26 C         141.1392  143.1546  163.6227 C.ar    1  UNL1        0.1388
     27 C         140.4187  143.3476  162.3213 C.ar    1  UNL1        0.0307
     28 C         139.6684  142.2055  161.7028 C.ar    1  UNL1        0.0990
     29 N         139.6386  140.8703  162.3857 N.ar    1  UNL1       -0.2289
     30 C         140.4485  144.6828  161.6384 C.3     1  UNL1        0.0269
     31 C         139.6145  145.8131  162.1646 C.3     1  UNL1        0.0048
     32 C         141.3123  144.8877  160.4293 C.3     1  UNL1        0.0048
     33 O         141.8895  144.2967  164.2412 O.3     1  UNL1       -0.4755
     34 C         143.3883  144.3247  164.1902 C.3     1  UNL1        0.2080
     35 C         144.0943  144.3033  162.8669 C.3     1  UNL1        0.0793
     36 C         144.6041  143.0073  162.3098 C.3     1  UNL1        0.1461
     37 O         143.8381  142.3022  161.2297 O.3     1  UNL1       -0.3510
     38 C         144.1176  142.6106  159.7886 C.3     1  UNL1        0.1741
     39 C         139.3808  139.1021  165.5070 C.3     1  UNL1        0.0812
     40 C         138.2302  138.3452  166.1013 C.3     1  UNL1        0.0219
     41 C         138.8886  139.4436  166.8822 C.3     1  UNL1        0.0219
@<TRIPOS>BOND
     1    22    23    1
     2    23    21    1
     3    21    20    1
     4    15    20    1
     5    15    16    1
     6    16    17    1
     7    17    18    1
     8    17    19    1
     9    15    11    1
    10    11    12   am
    11    12    13    2
    12     4    12    1
    13     4     5    1
    14     5     6    1
    15     6     7    1
    16     7     8    1
    17     8     1    1
    18     1     2    2
    19     1     3   am
    20     3    24    1
    21    24    25   ar
    22    25    26   ar
    23    26    33    1
    24    33    34    1
    25    34    35    1
    26    35    36    1
    27    36    37    1
    28    37    38    1
    29    26    27   ar
    30    27    30    1
    31    30    31    1
    32    30    32    1
    33    27    28   ar
    34    28    29   ar
    35     3    39    1
    36    39    40    1
    37    40    41    1
    38     8     9    1
    39     9     4    1
    40    29    24   ar
    41    41    39    1
    42    11    14    1
    43     6    10    1
@<TRIPOS>MOLECULE
*****
 41 43 0 0 0
SMALL
GASTEIGER

@<TRIPOS>ATOM
      1 C         144.2276  143.0011  165.9069 C.2     1  UNL1        0.2312
      2 O         145.1227  144.0221  166.5445 O.2     1  UNL1       -0.2745
      3 N         143.2828  142.1996  166.7523 N.am    1  UNL1       -0.2454
      4 C         143.3444  143.2580  162.0463 C.3     1  UNL1        0.0927
      5 C         144.3770  142.3430  161.4578 C.3     1  UNL1        0.0777
      6 N         145.3598  141.6473  162.3523 N.3     1  UNL1       -0.2967
      7 C         145.3101  141.8667  163.8353 C.3     1  UNL1        0.0777
      8 C         144.2774  142.7817  164.4238 C.3     1  UNL1        0.0933
      9 C         143.2946  143.4774  163.5293 C.3     1  UNL1        0.0210
     10 H         146.2901  141.9301  162.0439 H       1  UNL1        0.1233
     11 N         142.3134  143.6227  159.6896 N.am    1  UNL1       -0.3035
     12 C         142.3616  143.9537  161.1518 C.2     1  UNL1        0.2234
     13 O         141.4269  144.9803  161.7196 O.2     1  UNL1       -0.2751
     14 H         142.9269  142.9489  159.3170 H       1  UNL1        0.1495
     15 C         141.3306  144.3184  158.7951 C.3     1  UNL1        0.1011
     16 C         139.9092  143.8436  158.7300 C.3     1  UNL1        0.0221
     17 C         139.6134  142.3827  158.5617 C.3     1  UNL1        0.0017
     18 C         139.7033  141.7508  157.2043 C.3     1  UNL1        0.0001
     19 C         139.2277  141.5537  159.7509 C.3     1  UNL1        0.0001
     20 C         141.7692  145.4888  157.9658 C.3     1  UNL1        0.1615
     21 O         140.7475  146.3492  157.2833 O.3     1  UNL1       -0.3520
     22 C         140.9707  144.9621  155.0979 C.3     1  UNL1        0.0346
     23 C         140.4973  146.1930  155.8126 C.3     1  UNL1        0.1423
     24 C         142.3878  141.1786  166.1147 C.ar    1  UNL1        0.1404
     25 C         140.9769  141.5387  165.7541 C.ar    1  UNL1        0.0712
     26 C         140.0819  140.5177  165.1165 C.ar    1  UNL1        0.1388
     27 C         140.5977  139.1366  164.8396 C.ar    1  UNL1        0.0307
     28 C         142.0085  138.7766  165.2002 C.ar    1  UNL1        0.0990
     29 N         142.9035  139.7976  165.8378 N.ar    1  UNL1       -0.2289
     30 C         139.7027  138.1156  164.2020 C.3     1  UNL1        0.0269
     31 C         139.7661  137.8826  162.7216 C.3     1  UNL1        0.0048
     32 C         138.7441  137.3277  165.0449 C.3     1  UNL1        0.0048
     33 O         138.6712  140.8778  164.7559 O.3     1  UNL1       -0.4755
     34 C         138.3655  141.4502  163.4036 C.3     1  UNL1        0.2080
     35 C         137.4478  142.6301  163.2786 C.3     1  UNL1        0.0793
     36 C         138.0083  143.9869  162.9707 C.3     1  UNL1        0.1461
     37 O         138.9802  144.6290  163.9159 O.3     1  UNL1       -0.3510
     38 C         138.6255  144.7847  165.3651 C.3     1  UNL1        0.1741
     39 C         143.2330  142.4190  168.2354 C.3     1  UNL1        0.0812
     40 C         142.4564  142.7585  169.4729 C.3     1  UNL1        0.0219
     41 C         143.9233  142.4595  169.5665 C.3     1  UNL1        0.0219
@<TRIPOS>BOND
     1    22    23    1
     2    23    21    1
     3    21    20    1
     4    15    20    1
     5    15    16    1
     6    16    17    1
     7    17    18    1
     8    17    19    1
     9    15    11    1
    10    11    12   am
    11    12    13    2
    12     4    12    1
    13     4     5    1
    14     5     6    1
    15     6     7    1
    16     7     8    1
    17     8     1    1
    18     1     2    2
    19     1     3   am
    20     3    24    1
    21    24    25   ar
    22    25    26   ar
    23    26    33    1
    24    33    34    1
    25    34    35    1
    26    35    36    1
    27    36    37    1
    28    37    38    1
    29    26    27   ar
    30    27    30    1
    31    30    31    1
    32    30    32    1
    33    27    28   ar
    34    28    29   ar
    35     3    39    1
    36    39    40    1
    37    40    41    1
    38     8     9    1
    39     9     4    1
    40    29    24   ar
    41    41    39    1
    42    11    14    1
    43     6    10    1
@<TRIPOS>MOLECULE
*****
 41 43 0 0 0
SMALL
GASTEIGER

@<TRIPOS>ATOM
      1 C         142.7297  138.5329  166.0969 C.2     1  UNL1        0.2312
      2 O         143.7138  137.6154  166.7600 O.2     1  UNL1       -0.2745
      3 N         142.0972  139.6457  166.8789 N.am    1  UNL1       -0.2454
      4 C         142.5393  139.1014  162.1738 C.3     1  UNL1        0.0927
      5 C         141.6750  137.9468  161.7617 C.3     1  UNL1        0.0777
      6 N         141.1623  136.9875  162.7947 N.3     1  UNL1       -0.2967
      7 C         141.5138  137.1829  164.2397 C.3     1  UNL1        0.0777
      8 C         142.3781  138.3375  164.6518 C.3     1  UNL1        0.0933
      9 C         142.8908  139.2967  163.6189 C.3     1  UNL1        0.0210
     10 H         141.5017  136.0624  162.5315 H       1  UNL1        0.1233
     11 N         142.0879  140.8635  160.3188 N.am    1  UNL1       -0.3035
     12 C         143.0520  140.0606  161.1409 C.2     1  UNL1        0.2234
     13 O         144.5288  140.2170  160.9300 O.2     1  UNL1       -0.2751
     14 H         141.1186  140.7609  160.4572 H       1  UNL1        0.1495
     15 C         142.6007  141.8228  159.2859 C.3     1  UNL1        0.1011
     16 C         142.6935  143.2862  159.6019 C.3     1  UNL1        0.0221
     17 C         141.5906  144.2145  159.1871 C.3     1  UNL1        0.0017
     18 C         140.2553  144.1435  159.8666 C.3     1  UNL1        0.0001
     19 C         141.8231  145.2137  158.0927 C.3     1  UNL1        0.0001
     20 C         143.0206  141.3186  157.9370 C.3     1  UNL1        0.1615
     21 O         144.1700  141.9627  157.2201 O.3     1  UNL1       -0.3520
     22 C         145.1715  140.0881  155.7259 C.3     1  UNL1        0.0346
     23 C         145.3430  141.1342  156.7871 C.3     1  UNL1        0.1423
     24 C         141.1130  140.5632  166.2158 C.ar    1  UNL1        0.1404
     25 C         141.5376  141.9377  165.7909 C.ar    1  UNL1        0.0712
     26 C         140.5534  142.8552  165.1278 C.ar    1  UNL1        0.1388
     27 C         139.1447  142.3981  164.8896 C.ar    1  UNL1        0.0307
     28 C         138.7202  141.0236  165.3144 C.ar    1  UNL1        0.0990
     29 N         139.7044  140.1062  165.9775 N.ar    1  UNL1       -0.2289
     30 C         138.1606  143.3156  164.2265 C.3     1  UNL1        0.0269
     31 C         137.5957  144.4819  164.9819 C.3     1  UNL1        0.0048
     32 C         137.7413  143.0667  162.8079 C.3     1  UNL1        0.0048
     33 O         140.9779  144.2297  164.7030 O.3     1  UNL1       -0.4755
     34 C         141.6267  144.4346  163.3662 C.3     1  UNL1        0.2080
     35 C         143.1219  144.4179  163.2476 C.3     1  UNL1        0.0793
     36 C         143.8497  143.1124  163.1213 C.3     1  UNL1        0.1461
     37 O         144.9370  142.7628  164.0938 O.3     1  UNL1       -0.3510
     38 C         145.8113  141.5698  163.8441 C.3     1  UNL1        0.1741
     39 C         142.4488  139.8411  168.3240 C.3     1  UNL1        0.0812
     40 C         142.5259  139.3115  169.7252 C.3     1  UNL1        0.0219
     41 C         142.9806  140.7091  169.4257 C.3     1  UNL1        0.0219
@<TRIPOS>BOND
     1    22    23    1
     2    23    21    1
     3    21    20    1
     4    15    20    1
     5    15    16    1
     6    16    17    1
     7    17    18    1
     8    17    19    1
     9    15    11    1
    10    11    12   am
    11    12    13    2
    12     4    12    1
    13     4     5    1
    14     5     6    1
    15     6     7    1
    16     7     8    1
    17     8     1    1
    18     1     2    2
    19     1     3   am
    20     3    24    1
    21    24    25   ar
    22    25    26   ar
    23    26    33    1
    24    33    34    1
    25    34    35    1
    26    35    36    1
    27    36    37    1
    28    37    38    1
    29    26    27   ar
    30    27    30    1
    31    30    31    1
    32    30    32    1
    33    27    28   ar
    34    28    29   ar
    35     3    39    1
    36    39    40    1
    37    40    41    1
    38     8     9    1
    39     9     4    1
    40    29    24   ar
    41    41    39    1
    42    11    14    1
    43     6    10    1
