@<TRIPOS>MOLECULE
*****
 17 19 0 0 0
SMALL
GASTEIGER

@<TRIPOS>ATOM
      1 C         139.1550  140.3839  165.8555 C.ar    1  UNL1        0.1241
      2 C         139.0547  139.6222  167.1438 C.ar    1  UNL1        0.0360
      3 C         139.6314  140.4766  168.2335 C.ar    1  UNL1        0.0372
      4 C         139.7996  140.2468  169.7062 C.ar    1  UNL1        0.0031
      5 C         140.4246  141.3067  170.5641 C.ar    1  UNL1        0.0002
      6 C         140.8812  142.5965  169.9492 C.ar    1  UNL1        0.0031
      7 C         140.7130  142.8263  168.4766 C.ar    1  UNL1        0.0375
      8 C         140.0881  141.7663  167.6187 C.ar    1  UNL1        0.1448
      9 O         139.7936  141.7090  166.1490 O.2     1  UNL1       -0.4577
     10 C         138.0363  138.1979  161.6796 C.2     1  UNL1       -0.0136
     11 C         138.8215  137.7536  162.8780 C.2     1  UNL1       -0.0288
     12 C         139.1156  138.5131  164.1376 C.3     1  UNL1        0.0346
     13 C         138.6970  139.9046  164.5099 C.3     1  UNL1        0.0775
     14 C         137.8811  140.8803  163.7146 C.3     1  UNL1        0.0767
     15 N         137.2822  140.7052  162.3505 N.3     1  UNL1       -0.2934
     16 C         137.3513  139.5115  161.4448 C.3     1  UNL1        0.0950
     17 H         137.6759  141.4676  161.7989 H       1  UNL1        0.1236
@<TRIPOS>BOND
     1    10    11    2
     2    11    12    1
     3    12    13    1
     4    13     1    1
     5     1     2   ar
     6     2     3   ar
     7     3     4   ar
     8     4     5   ar
     9     5     6   ar
    10     6     7   ar
    11     7     8   ar
    12     8     9   ar
    13    13    14    1
    14    14    15    1
    15    15    16    1
    16    16    10    1
    17     9     1   ar
    18     8     3   ar
    19    15    17    1
@<TRIPOS>MOLECULE
*****
 17 19 0 0 0
SMALL
GASTEIGER

@<TRIPOS>ATOM
      1 C         139.7736  139.6172  166.0765 C.ar    1  UNL1        0.1241
      2 C         139.0352  139.8628  167.3589 C.ar    1  UNL1        0.0360
      3 C         140.0485  140.0396  168.4507 C.ar    1  UNL1        0.0372
      4 C         139.9048  140.3072  169.9196 C.ar    1  UNL1        0.0031
      5 C         141.1258  140.4384  170.7810 C.ar    1  UNL1        0.0002
      6 C         142.4904  140.3022  170.1734 C.ar    1  UNL1        0.0031
      7 C         142.6341  140.0346  168.7045 C.ar    1  UNL1        0.0375
      8 C         141.4131  139.9034  167.8431 C.ar    1  UNL1        0.1448
      9 O         141.2433  139.6423  166.3758 O.2     1  UNL1       -0.4577
     10 C         137.5664  139.5984  161.7642 C.2     1  UNL1       -0.0136
     11 C         137.7750  140.6711  162.7918 C.2     1  UNL1       -0.0288
     12 C         138.4805  140.5771  164.1122 C.3     1  UNL1        0.0346
     13 C         139.1517  139.3869  164.7311 C.3     1  UNL1        0.0775
     14 C         139.2831  137.9970  164.1826 C.3     1  UNL1        0.0767
     15 N         138.7758  137.4540  162.8797 N.3     1  UNL1       -0.2934
     16 C         138.0118  138.1666  161.8034 C.3     1  UNL1        0.0950
     17 H         138.1756  136.6730  163.1447 H       1  UNL1        0.1236
@<TRIPOS>BOND
     1    10    11    2
     2    11    12    1
     3    12    13    1
     4    13     1    1
     5     1     2   ar
     6     2     3   ar
     7     3     4   ar
     8     4     5   ar
     9     5     6   ar
    10     6     7   ar
    11     7     8   ar
    12     8     9   ar
    13    13    14    1
    14    14    15    1
    15    15    16    1
    16    16    10    1
    17     9     1   ar
    18     8     3   ar
    19    15    17    1
@<TRIPOS>MOLECULE
*****
 17 19 0 0 0
SMALL
GASTEIGER

@<TRIPOS>ATOM
      1 C         142.0911  139.1550  165.4018 C.ar    1  UNL1        0.1241
      2 C         142.9584  139.0870  166.6237 C.ar    1  UNL1        0.0360
      3 C         142.1168  139.4526  167.8104 C.ar    1  UNL1        0.0372
      4 C         142.4346  139.5558  169.2727 C.ar    1  UNL1        0.0031
      5 C         141.3650  139.9529  170.2464 C.ar    1  UNL1        0.0002
      6 C         139.9776  140.2468  169.7578 C.ar    1  UNL1        0.0031
      7 C         139.6598  140.1436  168.2956 C.ar    1  UNL1        0.0375
      8 C         140.7294  139.7465  167.3219 C.ar    1  UNL1        0.1448
      9 O         140.7135  139.5626  165.8333 O.2     1  UNL1       -0.4577
     10 C         144.0101  138.7568  160.9715 C.2     1  UNL1       -0.0136
     11 C         144.3366  139.6354  162.1426 C.2     1  UNL1       -0.0288
     12 C         143.6758  139.6841  163.4883 C.3     1  UNL1        0.0346
     13 C         142.5252  138.8661  163.9953 C.3     1  UNL1        0.0775
     14 C         141.7512  137.7974  163.2819 C.3     1  UNL1        0.0767
     15 N         141.9368  137.2829  161.8852 N.3     1  UNL1       -0.2934
     16 C         142.9421  137.7098  160.8569 C.3     1  UNL1        0.0950
     17 H         141.0331  137.4313  161.4360 H       1  UNL1        0.1236
@<TRIPOS>BOND
     1    10    11    2
     2    11    12    1
     3    12    13    1
     4    13     1    1
     5     1     2   ar
     6     2     3   ar
     7     3     4   ar
     8     4     5   ar
     9     5     6   ar
    10     6     7   ar
    11     7     8   ar
    12     8     9   ar
    13    13    14    1
    14    14    15    1
    15    15    16    1
    16    16    10    1
    17     9     1   ar
    18     8     3   ar
    19    15    17    1
@<TRIPOS>MOLECULE
*****
 17 19 0 0 0
SMALL
GASTEIGER

@<TRIPOS>ATOM
      1 C         139.7203  139.7547  166.4465 C.ar    1  UNL1        0.1241
      2 C         138.9824  140.7351  165.5838 C.ar    1  UNL1        0.0360
      3 C         138.6191  140.0439  164.3031 C.ar    1  UNL1        0.0372
      4 C         137.8871  140.5144  163.0813 C.ar    1  UNL1        0.0031
      5 C         137.6685  139.5773  161.9306 C.ar    1  UNL1        0.0002
      6 C         138.1819  138.1697  162.0018 C.ar    1  UNL1        0.0031
      7 C         138.9139  137.6992  163.2236 C.ar    1  UNL1        0.0375
      8 C         139.1324  138.6363  164.3742 C.ar    1  UNL1        0.1448
      9 O         139.8130  138.4576  165.6989 O.2     1  UNL1       -0.4577
     10 C         142.1693  140.5653  170.5469 C.2     1  UNL1       -0.0136
     11 C         142.6106  140.2938  169.1392 C.2     1  UNL1       -0.0288
     12 C         141.7650  140.0529  167.9240 C.3     1  UNL1        0.0346
     13 C         140.2691  140.0241  167.8163 C.3     1  UNL1        0.0775
     14 C         139.2494  140.2290  168.8972 C.3     1  UNL1        0.0767
     15 N         139.4739  140.5134  170.3528 N.3     1  UNL1       -0.2934
     16 C         140.7733  140.6631  171.0870 C.3     1  UNL1        0.0950
     17 H         138.9918  139.7568  170.8382 H       1  UNL1        0.1236
@<TRIPOS>BOND
     1    10    11    2
     2    11    12    1
     3    12    13    1
     4    13     1    1
     5     1     2   ar
     6     2     3   ar
     7     3     4   ar
     8     4     5   ar
     9     5     6   ar
    10     6     7   ar
    11     7     8   ar
    12     8     9   ar
    13    13    14    1
    14    14    15    1
    15    15    16    1
    16    16    10    1
    17     9     1   ar
    18     8     3   ar
    19    15    17    1
@<TRIPOS>MOLECULE
*****
 17 19 0 0 0
SMALL
GASTEIGER

@<TRIPOS>ATOM
      1 C         139.8260  139.6685  166.1917 C.ar    1  UNL1        0.1241
      2 C         139.8751  138.3920  165.4055 C.ar    1  UNL1        0.0360
      3 C         139.1394  138.6126  164.1170 C.ar    1  UNL1        0.0372
      4 C         138.8631  137.7096  162.9517 C.ar    1  UNL1        0.0031
      5 C         138.0830  138.2193  161.7763 C.ar    1  UNL1        0.0002
      6 C         137.5792  139.6322  161.7663 C.ar    1  UNL1        0.0031
      7 C         137.8554  140.5352  162.9316 C.ar    1  UNL1        0.0375
      8 C         138.6355  140.0255  164.1070 C.ar    1  UNL1        0.1448
      9 O         139.0599  140.6780  165.3892 O.2     1  UNL1       -0.4577
     10 C         141.0919  140.5327  170.7873 C.2     1  UNL1       -0.0136
     11 C         139.7669  140.5293  170.0841 C.2     1  UNL1       -0.0288
     12 C         139.4749  140.2458  168.6404 C.3     1  UNL1        0.0346
     13 C         140.4359  139.8956  167.5432 C.3     1  UNL1        0.0775
     14 C         141.9262  139.7424  167.6187 C.3     1  UNL1        0.0767
     15 N         142.8235  139.9017  168.8102 N.3     1  UNL1       -0.2934
     16 C         142.4522  140.2534  170.2203 C.3     1  UNL1        0.0950
     17 H         143.4895  140.6231  168.5338 H       1  UNL1        0.1236
@<TRIPOS>BOND
     1    10    11    2
     2    11    12    1
     3    12    13    1
     4    13     1    1
     5     1     2   ar
     6     2     3   ar
     7     3     4   ar
     8     4     5   ar
     9     5     6   ar
    10     6     7   ar
    11     7     8   ar
    12     8     9   ar
    13    13    14    1
    14    14    15    1
    15    15    16    1
    16    16    10    1
    17     9     1   ar
    18     8     3   ar
    19    15    17    1
@<TRIPOS>MOLECULE
*****
 17 19 0 0 0
SMALL
GASTEIGER

@<TRIPOS>ATOM
      1 C         140.0469  141.6440  166.6068 C.ar    1  UNL1        0.1241
      2 C         140.3745  143.0598  166.2354 C.ar    1  UNL1        0.0360
      3 C         139.5549  143.4254  165.0335 C.ar    1  UNL1        0.0372
      4 C         139.4604  144.6880  164.2293 C.ar    1  UNL1        0.0031
      5 C         138.5317  144.7607  163.0537 C.ar    1  UNL1        0.0002
      6 C         137.6975  143.5707  162.6822 C.ar    1  UNL1        0.0031
      7 C         137.7919  142.3080  163.4864 C.ar    1  UNL1        0.0375
      8 C         138.7207  142.2354  164.6620 C.ar    1  UNL1        0.1448
      9 O         139.0247  141.1344  165.6344 O.2     1  UNL1       -0.4577
     10 C         141.3340  139.3505  170.6752 C.2     1  UNL1       -0.0136
     11 C         140.1266  140.1607  170.3066 C.2     1  UNL1       -0.0288
     12 C         139.8167  140.8383  169.0048 C.3     1  UNL1        0.0346
     13 C         140.6376  140.8730  167.7499 C.3     1  UNL1        0.0775
     14 C         141.9713  140.2387  167.4868 C.3     1  UNL1        0.0767
     15 N         142.8132  139.4130  168.4138 N.3     1  UNL1       -0.2934
     16 C         142.5296  139.0177  169.8328 C.3     1  UNL1        0.0950
     17 H         143.7037  139.9084  168.4597 H       1  UNL1        0.1236
@<TRIPOS>BOND
     1    10    11    2
     2    11    12    1
     3    12    13    1
     4    13     1    1
     5     1     2   ar
     6     2     3   ar
     7     3     4   ar
     8     4     5   ar
     9     5     6   ar
    10     6     7   ar
    11     7     8   ar
    12     8     9   ar
    13    13    14    1
    14    14    15    1
    15    15    16    1
    16    16    10    1
    17     9     1   ar
    18     8     3   ar
    19    15    17    1
@<TRIPOS>MOLECULE
*****
 17 19 0 0 0
SMALL
GASTEIGER

@<TRIPOS>ATOM
      1 C         140.1222  141.9722  166.8384 C.ar    1  UNL1        0.1241
      2 C         139.3786  141.1678  165.8138 C.ar    1  UNL1        0.0360
      3 C         138.8488  142.1136  164.7771 C.ar    1  UNL1        0.0372
      4 C         138.0412  141.8895  163.5331 C.ar    1  UNL1        0.0031
      5 C         137.6499  143.0544  162.6730 C.ar    1  UNL1        0.0002
      6 C         138.0662  144.4434  163.0569 C.ar    1  UNL1        0.0031
      7 C         138.8738  144.6675  164.3009 C.ar    1  UNL1        0.0375
      8 C         139.2651  143.5026  165.1609 C.ar    1  UNL1        0.1448
      9 O         140.0521  143.4152  166.4349 O.2     1  UNL1       -0.4577
     10 C         142.6444  139.7016  170.2956 C.2     1  UNL1       -0.0136
     11 C         142.4940  139.4563  168.8234 C.2     1  UNL1       -0.0288
     12 C         141.6797  140.2250  167.8254 C.3     1  UNL1        0.0346
     13 C         140.8145  141.4290  168.0532 C.3     1  UNL1        0.0775
     14 C         140.5499  142.1616  169.3352 C.3     1  UNL1        0.0767
     15 N         141.0853  141.8711  170.7059 N.3     1  UNL1       -0.2934
     16 C         142.0174  140.7763  171.1334 C.3     1  UNL1        0.0950
     17 H         140.2541  141.7384  171.2820 H       1  UNL1        0.1236
@<TRIPOS>BOND
     1    10    11    2
     2    11    12    1
     3    12    13    1
     4    13     1    1
     5     1     2   ar
     6     2     3   ar
     7     3     4   ar
     8     4     5   ar
     9     5     6   ar
    10     6     7   ar
    11     7     8   ar
    12     8     9   ar
    13    13    14    1
    14    14    15    1
    15    15    16    1
    16    16    10    1
    17     9     1   ar
    18     8     3   ar
    19    15    17    1
@<TRIPOS>MOLECULE
*****
 17 19 0 0 0
SMALL
GASTEIGER

@<TRIPOS>ATOM
      1 C         140.9482  142.7183  166.2935 C.ar    1  UNL1        0.1241
      2 C         139.6002  143.2064  165.8525 C.ar    1  UNL1        0.0360
      3 C         139.7863  144.0181  164.6050 C.ar    1  UNL1        0.0372
      4 C         138.8126  144.7466  163.7269 C.ar    1  UNL1        0.0031
      5 C         139.3020  145.4888  162.5188 C.ar    1  UNL1        0.0002
      6 C         140.7652  145.5024  162.1887 C.ar    1  UNL1        0.0031
      7 C         141.7389  144.7740  163.0668 C.ar    1  UNL1        0.0375
      8 C         141.2495  144.0318  164.2749 C.ar    1  UNL1        0.1448
      9 O         141.9676  143.2285  165.3185 O.2     1  UNL1       -0.4577
     10 C         142.4965  140.3601  170.2318 C.2     1  UNL1       -0.0136
     11 C         143.0959  141.4614  169.4085 C.2     1  UNL1       -0.0288
     12 C         142.5313  142.1331  168.1919 C.3     1  UNL1        0.0346
     13 C         141.2279  141.8693  167.4981 C.3     1  UNL1        0.0775
     14 C         140.1670  140.8686  167.8494 C.3     1  UNL1        0.0767
     15 N         140.1478  139.8847  168.9815 N.3     1  UNL1       -0.2934
     16 C         141.1844  139.6583  170.0417 C.3     1  UNL1        0.0950
     17 H         140.0426  138.9766  168.5289 H       1  UNL1        0.1236
@<TRIPOS>BOND
     1    10    11    2
     2    11    12    1
     3    12    13    1
     4    13     1    1
     5     1     2   ar
     6     2     3   ar
     7     3     4   ar
     8     4     5   ar
     9     5     6   ar
    10     6     7   ar
    11     7     8   ar
    12     8     9   ar
    13    13    14    1
    14    14    15    1
    15    15    16    1
    16    16    10    1
    17     9     1   ar
    18     8     3   ar
    19    15    17    1
@<TRIPOS>MOLECULE
*****
 17 19 0 0 0
SMALL
GASTEIGER

@<TRIPOS>ATOM
      1 C         142.9168  139.8810  166.0039 C.ar    1  UNL1        0.1241
      2 C         142.7841  138.9965  167.2081 C.ar    1  UNL1        0.0360
      3 C         142.6313  139.8752  168.4142 C.ar    1  UNL1        0.0372
      4 C         142.4622  139.5599  169.8708 C.ar    1  UNL1        0.0031
      5 C         142.3314  140.6721  170.8687 C.ar    1  UNL1        0.0002
      6 C         142.3697  142.0997  170.4099 C.ar    1  UNL1        0.0031
      7 C         142.5388  142.4151  168.9532 C.ar    1  UNL1        0.0375
      8 C         142.6696  141.3028  167.9554 C.ar    1  UNL1        0.1448
      9 O         142.8461  141.3064  166.4658 O.2     1  UNL1       -0.4577
     10 C         142.8648  137.9743  161.5509 C.2     1  UNL1       -0.0136
     11 C         141.9759  137.7869  162.7444 C.2     1  UNL1       -0.0288
     12 C         142.0760  138.4307  164.0956 C.3     1  UNL1        0.0346
     13 C         143.0900  139.4209  164.5868 C.3     1  UNL1        0.0775
     14 C         144.2542  140.0120  163.8483 C.3     1  UNL1        0.0767
     15 N         144.6918  139.7587  162.4361 N.3     1  UNL1       -0.2934
     16 C         144.0736  138.8518  161.4136 C.3     1  UNL1        0.0950
     17 H         145.6533  139.4291  162.5218 H       1  UNL1        0.1236
@<TRIPOS>BOND
     1    10    11    2
     2    11    12    1
     3    12    13    1
     4    13     1    1
     5     1     2   ar
     6     2     3   ar
     7     3     4   ar
     8     4     5   ar
     9     5     6   ar
    10     6     7   ar
    11     7     8   ar
    12     8     9   ar
    13    13    14    1
    14    14    15    1
    15    15    16    1
    16    16    10    1
    17     9     1   ar
    18     8     3   ar
    19    15    17    1
