@<TRIPOS>MOLECULE
*****
 44 49 0 0 0
SMALL
GASTEIGER

@<TRIPOS>ATOM
      1 N         138.5445  142.1496  158.0779 N.am    1  UNL1       -0.2222
      2 C         138.4759  141.4970  159.4269 C.2     1  UNL1        0.3220
      3 O         137.8514  140.1679  159.7326 O.2     1  UNL1       -0.2512
      4 N         139.1415  142.4069  160.4164 N.am    1  UNL1       -0.1892
      5 C         139.6215  143.6218  159.6791 C.2     1  UNL1        0.2529
      6 O         140.3436  144.7906  160.2812 O.2     1  UNL1       -0.2724
      7 C         139.2525  143.4628  158.2338 C.3     1  UNL1        0.1391
      8 C         138.8204  143.1657  156.8285 C.3     1  UNL1        0.0449
      9 C         139.1088  144.1475  155.7318 C.3     1  UNL1        0.0746
     10 N         139.8294  145.4264  156.0403 N.3     1  UNL1       -0.2676
     11 C         140.2616  145.7235  157.4456 C.3     1  UNL1        0.0746
     12 C         139.9732  144.7417  158.5423 C.3     1  UNL1        0.0449
     13 C         136.0235  141.2621  155.1443 C.ar    1  UNL1        0.2293
     14 C         136.5673  141.8240  156.4243 C.ar    1  UNL1        0.0924
     15 C         138.0007  141.5877  156.7979 C.ar    1  UNL1        0.1453
     16 N         138.8902  140.7893  155.8916 N.ar    1  UNL1       -0.2084
     17 C         138.3464  140.2273  154.6116 C.ar    1  UNL1        0.2027
     18 N         136.9129  140.4637  154.2380 N.ar    1  UNL1       -0.1892
     19 C         133.4906  140.9486  155.6301 C.3     1  UNL1        0.2542
     20 O         134.5901  141.4984  154.7706 O.3     1  UNL1       -0.4560
     21 C         139.2994  142.1475  161.8852 C.ar    1  UNL1        0.0813
     22 C         138.2406  142.6026  162.8453 C.ar    1  UNL1        0.0185
     23 C         138.3984  142.3432  164.3142 C.ar    1  UNL1        0.0204
     24 C         139.6152  141.6286  164.8231 C.ar    1  UNL1        0.0811
     25 N         140.6741  141.1734  163.8630 N.ar    1  UNL1       -0.2425
     26 C         140.5161  141.4329  162.3941 C.ar    1  UNL1        0.1141
     27 C         139.7731  141.3691  166.2921 C.ar    1  UNL1        0.0137
     28 C         140.4766  142.3706  167.1592 C.ar    1  UNL1        0.0012
     29 C         140.6345  142.1112  168.6282 C.ar    1  UNL1        0.0012
     30 C         140.0888  140.8502  169.2299 C.ar    1  UNL1        0.0137
     31 C         139.3852  139.8486  168.3627 C.ar    1  UNL1       -0.0031
     32 C         139.2273  140.1081  166.8939 C.ar    1  UNL1       -0.0204
     33 C         138.5238  139.1066  166.0267 C.3     1  UNL1        0.0311
     34 C         140.2467  140.5907  170.6988 C.2     1  UNL1        0.0729
     35 O         139.5072  139.4562  171.3438 O.co2   1  UNL1       -0.5446
     36 O         141.1441  141.4658  171.5228 O.co2   1  UNL1       -0.5446
     37 C         140.1178  146.4082  154.9435 C.3     1  UNL1        0.1183
     38 C         139.6488  147.8277  155.0651 C.ar    1  UNL1        0.0712
     39 N         138.8129  148.2435  156.2392 N.ar    1  UNL1       -0.2471
     40 C         138.3440  149.6631  156.3608 C.ar    1  UNL1        0.0985
     41 C         138.7109  150.6670  155.3084 C.ar    1  UNL1        0.0203
     42 C         139.5468  150.2512  154.1344 C.ar    1  UNL1       -0.0015
     43 C         140.0158  148.8317  154.0127 C.ar    1  UNL1       -0.0069
     44 C         140.8517  148.4159  152.8386 C.3     1  UNL1        0.0323
@<TRIPOS>UNITY_ATOM_ATTR
35 1
charge -1
@<TRIPOS>BOND
     1    19    20    1
     2    20    13    1
     3    13    14   ar
     4    14    15   ar
     5    15     1    1
     6     1     2   am
     7     2     3    2
     8     2     4   am
     9     4    21    1
    10    21    22   ar
    11    22    23   ar
    12    23    24   ar
    13    24    27    1
    14    27    28   ar
    15    28    29   ar
    16    29    30   ar
    17    30    34    1
    18    34    35   ar
    19    34    36   ar
    20    30    31   ar
    21    31    32   ar
    22    32    33    1
    23    24    25   ar
    24    25    26   ar
    25     4     5   am
    26     5     6    2
    27     5     7    1
    28     7     8    1
    29     8     9    1
    30     9    10    1
    31    10    37    1
    32    37    38    1
    33    38    39   ar
    34    39    40   ar
    35    40    41   ar
    36    41    42   ar
    37    42    43   ar
    38    43    44    1
    39    10    11    1
    40    11    12    1
    41    15    16   ar
    42    16    17   ar
    43    17    18   ar
    44    18    13   ar
    45     7     1    1
    46    43    38   ar
    47    26    21   ar
    48    12     7    1
    49    32    27   ar
@<TRIPOS>MOLECULE
*****
 44 49 0 0 0
SMALL
GASTEIGER

@<TRIPOS>ATOM
      1 N         143.6798  140.9779  158.5171 N.am    1  UNL1       -0.2222
      2 C         143.4577  141.6100  159.8592 C.2     1  UNL1        0.3220
      3 O         143.7539  143.0349  160.2226 O.2     1  UNL1       -0.2512
      4 N         142.8873  140.5671  160.7741 N.am    1  UNL1       -0.1892
      5 C         142.7569  139.2904  159.9975 C.2     1  UNL1        0.2529
      6 O         142.2293  137.9885  160.5233 O.2     1  UNL1       -0.2724
      7 C         143.2466  139.5443  158.6025 C.3     1  UNL1        0.1391
      8 C         143.7647  139.9458  157.2533 C.3     1  UNL1        0.0449
      9 C         143.8128  138.9423  156.1395 C.3     1  UNL1        0.0746
     10 N         143.3430  137.5374  156.3748 N.3     1  UNL1       -0.2676
     11 C         142.8250  137.1359  157.7241 C.3     1  UNL1        0.0746
     12 C         142.7768  138.1394  158.8379 C.3     1  UNL1        0.0449
     13 C         146.2775  142.3881  155.8689 C.ar    1  UNL1        0.2293
     14 C         145.7202  141.7063  157.0832 C.ar    1  UNL1        0.0924
     15 C         144.2371  141.6597  157.3028 C.ar    1  UNL1        0.1453
     16 N         143.3113  142.2949  156.3081 N.ar    1  UNL1       -0.2084
     17 C         143.8686  142.9767  155.0938 C.ar    1  UNL1        0.2027
     18 N         145.3518  143.0233  154.8742 N.ar    1  UNL1       -0.1892
     19 C         148.3270  142.1438  154.2911 C.3     1  UNL1        0.2542
     20 O         147.7606  142.4347  155.6493 O.3     1  UNL1       -0.4560
     21 C         142.5131  140.7659  162.2129 C.ar    1  UNL1        0.0813
     22 C         143.2049  139.9757  163.2839 C.ar    1  UNL1        0.0185
     23 C         142.8307  140.1745  164.7228 C.ar    1  UNL1        0.0204
     24 C         141.7646  141.1635  165.0908 C.ar    1  UNL1        0.0811
     25 N         141.0727  141.9537  164.0198 N.ar    1  UNL1       -0.2425
     26 C         141.4470  141.7548  162.5809 C.ar    1  UNL1        0.1141
     27 C         141.3903  141.3623  166.5297 C.ar    1  UNL1        0.0137
     28 C         142.1936  142.2900  167.3922 C.ar    1  UNL1        0.0012
     29 C         141.8193  142.4889  168.8312 C.ar    1  UNL1        0.0012
     30 C         140.6418  141.7598  169.4074 C.ar    1  UNL1        0.0137
     31 C         139.8386  140.8321  168.5448 C.ar    1  UNL1       -0.0031
     32 C         140.2128  140.6333  167.1060 C.ar    1  UNL1       -0.0204
     33 C         139.4096  139.7055  166.2434 C.3     1  UNL1        0.0311
     34 C         140.2676  141.9586  170.8463 C.2     1  UNL1        0.0729
     35 O         140.7345  140.9819  171.8846 O.co2   1  UNL1       -0.5446
     36 O         139.4263  143.1343  171.2469 O.co2   1  UNL1       -0.5446
     37 C         143.3912  136.5339  155.2609 C.3     1  UNL1        0.1183
     38 C         143.0266  135.1030  155.5242 C.ar    1  UNL1        0.0712
     39 N         143.9844  134.2066  156.2516 N.ar    1  UNL1       -0.2471
     40 C         143.6197  132.7755  156.5149 C.ar    1  UNL1        0.0985
     41 C         142.2972  132.2410  156.0509 C.ar    1  UNL1        0.0203
     42 C         141.3394  133.1374  155.3236 C.ar    1  UNL1       -0.0015
     43 C         141.7040  134.5684  155.0602 C.ar    1  UNL1       -0.0069
     44 C         140.7462  135.4648  154.3329 C.3     1  UNL1        0.0323
@<TRIPOS>UNITY_ATOM_ATTR
35 1
charge -1
@<TRIPOS>BOND
     1    19    20    1
     2    20    13    1
     3    13    14   ar
     4    14    15   ar
     5    15     1    1
     6     1     2   am
     7     2     3    2
     8     2     4   am
     9     4    21    1
    10    21    22   ar
    11    22    23   ar
    12    23    24   ar
    13    24    27    1
    14    27    28   ar
    15    28    29   ar
    16    29    30   ar
    17    30    34    1
    18    34    35   ar
    19    34    36   ar
    20    30    31   ar
    21    31    32   ar
    22    32    33    1
    23    24    25   ar
    24    25    26   ar
    25     4     5   am
    26     5     6    2
    27     5     7    1
    28     7     8    1
    29     8     9    1
    30     9    10    1
    31    10    37    1
    32    37    38    1
    33    38    39   ar
    34    39    40   ar
    35    40    41   ar
    36    41    42   ar
    37    42    43   ar
    38    43    44    1
    39    10    11    1
    40    11    12    1
    41    15    16   ar
    42    16    17   ar
    43    17    18   ar
    44    18    13   ar
    45     7     1    1
    46    43    38   ar
    47    26    21   ar
    48    12     7    1
    49    32    27   ar
@<TRIPOS>MOLECULE
*****
 44 49 0 0 0
SMALL
GASTEIGER

@<TRIPOS>ATOM
      1 N         139.7423  140.5164  157.1976 N.am    1  UNL1       -0.2222
      2 C         139.8344  141.7354  156.3282 C.2     1  UNL1        0.3220
      3 O         140.2808  141.7655  154.8965 O.2     1  UNL1       -0.2512
      4 N         139.4017  142.9189  157.1419 N.am    1  UNL1       -0.1892
      5 C         139.0422  142.4315  158.5142 C.2     1  UNL1        0.2529
      6 O         138.5573  143.2798  159.6522 O.2     1  UNL1       -0.2724
      7 C         139.2527  140.9467  158.5486 C.3     1  UNL1        0.1391
      8 C         139.5086  139.4732  158.4332 C.3     1  UNL1        0.0449
      9 C         139.2712  138.5762  159.6117 C.3     1  UNL1        0.0746
     10 N         138.7777  139.1526  160.9056 N.3     1  UNL1       -0.2676
     11 C         138.5218  140.6261  161.0211 C.3     1  UNL1        0.0746
     12 C         138.7592  141.5231  159.8426 C.3     1  UNL1        0.0449
     13 C         141.8068  137.1827  156.5866 C.ar    1  UNL1        0.2293
     14 C         141.4687  138.5855  156.9963 C.ar    1  UNL1        0.0924
     15 C         140.0804  139.1137  156.7879 C.ar    1  UNL1        0.1453
     16 N         139.0301  138.2391  156.1698 N.ar    1  UNL1       -0.2084
     17 C         139.3681  136.8363  155.7601 C.ar    1  UNL1        0.2027
     18 N         140.7566  136.3081  155.9685 N.ar    1  UNL1       -0.1892
     19 C         144.0489  136.3025  155.6129 C.3     1  UNL1        0.2542
     20 O         143.1952  136.6544  156.7950 O.3     1  UNL1       -0.4560
     21 C         139.3395  144.3402  156.6668 C.ar    1  UNL1        0.0813
     22 C         138.3436  144.7375  155.6179 C.ar    1  UNL1        0.0185
     23 C         138.2814  146.1589  155.1427 C.ar    1  UNL1        0.0204
     24 C         139.2151  147.1831  155.7165 C.ar    1  UNL1        0.0811
     25 N         140.2112  146.7858  156.7654 N.ar    1  UNL1       -0.2425
     26 C         140.2733  145.3644  157.2405 C.ar    1  UNL1        0.1141
     27 C         139.1529  148.6045  155.2413 C.ar    1  UNL1        0.0137
     28 C         139.6390  148.9578  153.8670 C.ar    1  UNL1        0.0012
     29 C         139.5768  150.3792  153.3919 C.ar    1  UNL1        0.0012
     30 C         139.0285  151.4472  154.2912 C.ar    1  UNL1        0.0137
     31 C         138.5424  151.0939  155.6655 C.ar    1  UNL1       -0.0031
     32 C         138.6046  149.6726  156.1406 C.ar    1  UNL1       -0.0204
     33 C         138.1185  149.3193  157.5149 C.3     1  UNL1        0.0311
     34 C         138.9663  152.8687  153.8160 C.2     1  UNL1        0.0729
     35 O         139.7594  153.9299  154.5193 O.co2   1  UNL1       -0.5446
     36 O         138.1109  153.2288  152.6375 O.co2   1  UNL1       -0.5446
     37 C         138.5403  138.2555  162.0842 C.3     1  UNL1        0.1183
     38 C         138.9866  138.6800  163.4518 C.ar    1  UNL1        0.0712
     39 N         138.1259  139.5955  164.2711 N.ar    1  UNL1       -0.2471
     40 C         138.5723  140.0200  165.6388 C.ar    1  UNL1        0.0985
     41 C         139.8792  139.5290  166.1872 C.ar    1  UNL1        0.0203
     42 C         140.7399  138.6136  165.3680 C.ar    1  UNL1       -0.0015
     43 C         140.2936  138.1891  164.0003 C.ar    1  UNL1       -0.0069
     44 C         141.1543  137.2736  163.1810 C.3     1  UNL1        0.0323
@<TRIPOS>UNITY_ATOM_ATTR
35 1
charge -1
@<TRIPOS>BOND
     1    19    20    1
     2    20    13    1
     3    13    14   ar
     4    14    15   ar
     5    15     1    1
     6     1     2   am
     7     2     3    2
     8     2     4   am
     9     4    21    1
    10    21    22   ar
    11    22    23   ar
    12    23    24   ar
    13    24    27    1
    14    27    28   ar
    15    28    29   ar
    16    29    30   ar
    17    30    34    1
    18    34    35   ar
    19    34    36   ar
    20    30    31   ar
    21    31    32   ar
    22    32    33    1
    23    24    25   ar
    24    25    26   ar
    25     4     5   am
    26     5     6    2
    27     5     7    1
    28     7     8    1
    29     8     9    1
    30     9    10    1
    31    10    37    1
    32    37    38    1
    33    38    39   ar
    34    39    40   ar
    35    40    41   ar
    36    41    42   ar
    37    42    43   ar
    38    43    44    1
    39    10    11    1
    40    11    12    1
    41    15    16   ar
    42    16    17   ar
    43    17    18   ar
    44    18    13   ar
    45     7     1    1
    46    43    38   ar
    47    26    21   ar
    48    12     7    1
    49    32    27   ar
@<TRIPOS>MOLECULE
*****
 44 49 0 0 0
SMALL
GASTEIGER

@<TRIPOS>ATOM
      1 N         142.1824  138.6138  158.5398 N.am    1  UNL1       -0.2222
      2 C         142.7032  138.8790  159.9214 C.2     1  UNL1        0.3220
      3 O         144.0563  138.4947  160.4424 O.2     1  UNL1       -0.2512
      4 N         141.6333  139.5961  160.6903 N.am    1  UNL1       -0.1892
      5 C         140.4513  139.7740  159.7841 C.2     1  UNL1        0.2529
      6 O         139.1572  140.4418  160.1436 O.2     1  UNL1       -0.2724
      7 C         140.7906  139.1669  158.4550 C.3     1  UNL1        0.1391
      8 C         141.2695  138.5229  157.1878 C.3     1  UNL1        0.0449
      9 C         140.3743  138.4770  155.9851 C.3     1  UNL1        0.0746
     10 N         139.0002  139.0751  156.0497 N.3     1  UNL1       -0.2676
     11 C         138.5213  139.7190  157.3169 C.3     1  UNL1        0.0746
     12 C         139.4165  139.7649  158.5195 C.3     1  UNL1        0.0449
     13 C         143.6133  135.7264  156.2236 C.ar    1  UNL1        0.2293
     14 C         142.8725  136.4225  157.3265 C.ar    1  UNL1        0.0924
     15 C         142.9232  137.9176  157.4369 C.ar    1  UNL1        0.1453
     16 N         143.7148  138.7165  156.4443 N.ar    1  UNL1       -0.2084
     17 C         144.4556  138.0204  155.3414 C.ar    1  UNL1        0.2027
     18 N         144.4049  136.5252  155.2310 N.ar    1  UNL1       -0.1892
     19 C         143.8203  133.3809  157.3217 C.3     1  UNL1        0.2542
     20 O         143.5626  134.2313  156.1132 O.3     1  UNL1       -0.4560
     21 C         141.7287  140.0548  162.1152 C.ar    1  UNL1        0.0813
     22 C         142.0528  139.0706  163.1998 C.ar    1  UNL1        0.0185
     23 C         142.1482  139.5293  164.6247 C.ar    1  UNL1        0.0204
     24 C         141.9195  140.9721  164.9652 C.ar    1  UNL1        0.0811
     25 N         141.5953  141.9564  163.8805 N.ar    1  UNL1       -0.2425
     26 C         141.5000  141.4976  162.4556 C.ar    1  UNL1        0.1141
     27 C         142.0149  141.4308  166.3901 C.ar    1  UNL1        0.0137
     28 C         143.2999  142.0048  166.9088 C.ar    1  UNL1        0.0012
     29 C         143.3953  142.4635  168.3338 C.ar    1  UNL1        0.0012
     30 C         142.2056  142.3480  169.2400 C.ar    1  UNL1        0.0137
     31 C         140.9205  141.7739  168.7213 C.ar    1  UNL1       -0.0031
     32 C         140.8251  141.3153  167.2964 C.ar    1  UNL1       -0.0204
     33 C         139.5401  140.7412  166.7778 C.3     1  UNL1        0.0311
     34 C         142.3010  142.8067  170.6650 C.2     1  UNL1        0.0729
     35 O         143.2656  143.8923  171.0405 O.co2   1  UNL1       -0.5446
     36 O         141.4317  142.1797  171.7145 O.co2   1  UNL1       -0.5446
     37 C         138.1050  139.0291  154.8469 C.3     1  UNL1        0.1183
     38 C         136.7857  139.7426  154.8662 C.ar    1  UNL1        0.0712
     39 N         135.5441  139.0121  155.2843 N.ar    1  UNL1       -0.2471
     40 C         134.2247  139.7256  155.3036 C.ar    1  UNL1        0.0985
     41 C         134.1471  141.1695  154.9049 C.ar    1  UNL1        0.0203
     42 C         135.3887  141.9000  154.4868 C.ar    1  UNL1       -0.0015
     43 C         136.7080  141.1865  154.4675 C.ar    1  UNL1       -0.0069
     44 C         137.9496  141.9170  154.0494 C.3     1  UNL1        0.0323
@<TRIPOS>UNITY_ATOM_ATTR
35 1
charge -1
@<TRIPOS>BOND
     1    19    20    1
     2    20    13    1
     3    13    14   ar
     4    14    15   ar
     5    15     1    1
     6     1     2   am
     7     2     3    2
     8     2     4   am
     9     4    21    1
    10    21    22   ar
    11    22    23   ar
    12    23    24   ar
    13    24    27    1
    14    27    28   ar
    15    28    29   ar
    16    29    30   ar
    17    30    34    1
    18    34    35   ar
    19    34    36   ar
    20    30    31   ar
    21    31    32   ar
    22    32    33    1
    23    24    25   ar
    24    25    26   ar
    25     4     5   am
    26     5     6    2
    27     5     7    1
    28     7     8    1
    29     8     9    1
    30     9    10    1
    31    10    37    1
    32    37    38    1
    33    38    39   ar
    34    39    40   ar
    35    40    41   ar
    36    41    42   ar
    37    42    43   ar
    38    43    44    1
    39    10    11    1
    40    11    12    1
    41    15    16   ar
    42    16    17   ar
    43    17    18   ar
    44    18    13   ar
    45     7     1    1
    46    43    38   ar
    47    26    21   ar
    48    12     7    1
    49    32    27   ar
@<TRIPOS>MOLECULE
*****
 44 49 0 0 0
SMALL
GASTEIGER

@<TRIPOS>ATOM
      1 N         141.9534  138.6034  158.5735 N.am    1  UNL1       -0.2222
      2 C         141.3530  138.6292  159.9479 C.2     1  UNL1        0.3220
      3 O         140.2246  137.7685  160.4335 O.2     1  UNL1       -0.2512
      4 N         142.0792  139.6670  160.7515 N.am    1  UNL1       -0.1892
      5 C         143.1284  140.2825  159.8738 C.2     1  UNL1        0.2529
      6 O         144.0870  141.3652  160.2720 O.2     1  UNL1       -0.2724
      7 C         143.0506  139.6251  158.5276 C.3     1  UNL1        0.1391
      8 C         142.8553  138.8814  157.2398 C.3     1  UNL1        0.0449
      9 C         143.7225  139.1914  156.0558 C.3     1  UNL1        0.0746
     10 N         144.7850  140.2451  156.1597 N.3     1  UNL1       -0.2676
     11 C         144.9803  140.9888  157.4476 C.3     1  UNL1        0.0746
     12 C         144.1131  140.6788  158.6315 C.3     1  UNL1        0.0449
     13 C         141.8502  135.5451  156.0464 C.ar    1  UNL1        0.2293
     14 C         142.2729  136.4363  157.1765 C.ar    1  UNL1        0.0924
     15 C         141.5307  137.7122  157.4434 C.ar    1  UNL1        0.1453
     16 N         140.3658  138.0969  156.5802 N.ar    1  UNL1       -0.2084
     17 C         139.9431  137.2058  155.4502 C.ar    1  UNL1        0.2027
     18 N         140.6853  135.9298  155.1832 N.ar    1  UNL1       -0.1892
     19 C         143.0083  133.3905  156.9217 C.3     1  UNL1        0.2542
     20 O         142.5924  134.2693  155.7794 O.3     1  UNL1       -0.4560
     21 C         141.8045  140.0262  162.1816 C.ar    1  UNL1        0.0813
     22 C         142.6293  139.4211  163.2787 C.ar    1  UNL1        0.0185
     23 C         142.3546  139.7803  164.7089 C.ar    1  UNL1        0.0204
     24 C         141.2550  140.7447  165.0421 C.ar    1  UNL1        0.0811
     25 N         140.4302  141.3499  163.9450 N.ar    1  UNL1       -0.2425
     26 C         140.7050  140.9906  162.5148 C.ar    1  UNL1        0.1141
     27 C         140.9803  141.1039  166.4723 C.ar    1  UNL1        0.0137
     28 C         141.7825  142.1794  167.1429 C.ar    1  UNL1        0.0012
     29 C         141.5078  142.5387  168.5731 C.ar    1  UNL1        0.0012
     30 C         140.4308  141.8223  169.3326 C.ar    1  UNL1        0.0137
     31 C         139.6286  140.7468  168.6621 C.ar    1  UNL1       -0.0031
     32 C         139.9033  140.3876  167.2319 C.ar    1  UNL1       -0.0204
     33 C         139.1010  139.3121  166.5614 C.3     1  UNL1        0.0311
     34 C         140.1561  142.1815  170.7629 C.2     1  UNL1        0.0729
     35 O         139.3131  143.3793  171.0867 O.co2   1  UNL1       -0.5446
     36 O         140.7243  141.3430  171.8692 O.co2   1  UNL1       -0.5446
     37 C         145.6522  140.5550  154.9756 C.3     1  UNL1        0.1183
     38 C         145.7949  141.9706  154.5005 C.ar    1  UNL1        0.0712
     39 N         144.6437  142.6544  153.8244 N.ar    1  UNL1       -0.2471
     40 C         144.7864  144.0701  153.3493 C.ar    1  UNL1        0.0985
     41 C         146.0802  144.8018  153.5503 C.ar    1  UNL1        0.0203
     42 C         147.2314  144.1180  154.2264 C.ar    1  UNL1       -0.0015
     43 C         147.0888  142.7024  154.7015 C.ar    1  UNL1       -0.0069
     44 C         148.2400  142.0186  155.3777 C.3     1  UNL1        0.0323
@<TRIPOS>UNITY_ATOM_ATTR
35 1
charge -1
@<TRIPOS>BOND
     1    19    20    1
     2    20    13    1
     3    13    14   ar
     4    14    15   ar
     5    15     1    1
     6     1     2   am
     7     2     3    2
     8     2     4   am
     9     4    21    1
    10    21    22   ar
    11    22    23   ar
    12    23    24   ar
    13    24    27    1
    14    27    28   ar
    15    28    29   ar
    16    29    30   ar
    17    30    34    1
    18    34    35   ar
    19    34    36   ar
    20    30    31   ar
    21    31    32   ar
    22    32    33    1
    23    24    25   ar
    24    25    26   ar
    25     4     5   am
    26     5     6    2
    27     5     7    1
    28     7     8    1
    29     8     9    1
    30     9    10    1
    31    10    37    1
    32    37    38    1
    33    38    39   ar
    34    39    40   ar
    35    40    41   ar
    36    41    42   ar
    37    42    43   ar
    38    43    44    1
    39    10    11    1
    40    11    12    1
    41    15    16   ar
    42    16    17   ar
    43    17    18   ar
    44    18    13   ar
    45     7     1    1
    46    43    38   ar
    47    26    21   ar
    48    12     7    1
    49    32    27   ar
@<TRIPOS>MOLECULE
*****
 44 49 0 0 0
SMALL
GASTEIGER

@<TRIPOS>ATOM
      1 N         141.7968  138.5766  158.7261 N.am    1  UNL1       -0.2222
      2 C         141.2012  138.6258  160.1020 C.2     1  UNL1        0.3220
      3 O         140.0476  137.8025  160.5933 O.2     1  UNL1       -0.2512
      4 N         141.9617  139.6430  160.9002 N.am    1  UNL1       -0.1892
      5 C         143.0273  140.2223  160.0177 C.2     1  UNL1        0.2529
      6 O         144.0205  141.2757  160.4099 O.2     1  UNL1       -0.2724
      7 C         142.9255  139.5633  158.6740 C.3     1  UNL1        0.1391
      8 C         142.7035  138.8218  157.3892 C.3     1  UNL1        0.0449
      9 C         143.5769  139.1005  156.2020 C.3     1  UNL1        0.0746
     10 N         144.6722  140.1207  156.2996 N.3     1  UNL1       -0.2676
     11 C         144.8942  140.8621  157.5845 C.3     1  UNL1        0.0746
     12 C         144.0208  140.5834  158.7717 C.3     1  UNL1        0.0449
     13 C         139.5616  137.0559  155.8208 C.ar    1  UNL1        0.2293
     14 C         140.0150  137.9371  156.9468 C.ar    1  UNL1        0.0924
     15 C         141.3434  137.6954  157.6001 C.ar    1  UNL1        0.1453
     16 N         142.2185  136.5725  157.1274 N.ar    1  UNL1       -0.2084
     17 C         141.7651  135.6913  156.0015 C.ar    1  UNL1        0.2027
     18 N         140.4366  135.9330  155.3481 N.ar    1  UNL1       -0.1892
     19 C         138.1423  137.4170  153.6749 C.3     1  UNL1        0.2542
     20 O         138.2332  137.2976  155.1674 O.3     1  UNL1       -0.4560
     21 C         141.7022  140.0153  162.3298 C.ar    1  UNL1        0.0813
     22 C         140.7260  141.1067  162.6552 C.ar    1  UNL1        0.0185
     23 C         140.4664  141.4790  164.0849 C.ar    1  UNL1        0.0204
     24 C         141.1831  140.7601  165.1892 C.ar    1  UNL1        0.0811
     25 N         142.1593  139.6686  164.8638 N.ar    1  UNL1       -0.2425
     26 C         142.4188  139.2963  163.4341 C.ar    1  UNL1        0.1141
     27 C         140.9235  141.1324  166.6189 C.ar    1  UNL1        0.0137
     28 C         141.7542  142.1916  167.2807 C.ar    1  UNL1        0.0012
     29 C         141.4946  142.5640  168.7104 C.ar    1  UNL1        0.0012
     30 C         140.4043  141.8771  169.4782 C.ar    1  UNL1        0.0137
     31 C         139.5737  140.8179  168.8163 C.ar    1  UNL1       -0.0031
     32 C         139.8332  140.4455  167.3867 C.ar    1  UNL1       -0.0204
     33 C         139.0025  139.3864  166.7249 C.3     1  UNL1        0.0311
     34 C         140.1448  142.2495  170.9078 C.2     1  UNL1        0.0729
     35 O         140.8193  141.4937  172.0141 O.co2   1  UNL1       -0.5446
     36 O         139.2106  143.3777  171.2313 O.co2   1  UNL1       -0.5446
     37 C         145.5456  140.3994  155.1123 C.3     1  UNL1        0.1183
     38 C         145.7233  141.8071  154.6259 C.ar    1  UNL1        0.0712
     39 N         144.5809  142.5233  153.9687 N.ar    1  UNL1       -0.2471
     40 C         144.7587  143.9312  153.4823 C.ar    1  UNL1        0.0985
     41 C         146.0787  144.6227  153.6531 C.ar    1  UNL1        0.0203
     42 C         147.2211  143.9064  154.3103 C.ar    1  UNL1       -0.0015
     43 C         147.0434  142.4987  154.7967 C.ar    1  UNL1       -0.0069
     44 C         148.1858  141.7824  155.4540 C.3     1  UNL1        0.0323
@<TRIPOS>UNITY_ATOM_ATTR
35 1
charge -1
@<TRIPOS>BOND
     1    19    20    1
     2    20    13    1
     3    13    14   ar
     4    14    15   ar
     5    15     1    1
     6     1     2   am
     7     2     3    2
     8     2     4   am
     9     4    21    1
    10    21    22   ar
    11    22    23   ar
    12    23    24   ar
    13    24    27    1
    14    27    28   ar
    15    28    29   ar
    16    29    30   ar
    17    30    34    1
    18    34    35   ar
    19    34    36   ar
    20    30    31   ar
    21    31    32   ar
    22    32    33    1
    23    24    25   ar
    24    25    26   ar
    25     4     5   am
    26     5     6    2
    27     5     7    1
    28     7     8    1
    29     8     9    1
    30     9    10    1
    31    10    37    1
    32    37    38    1
    33    38    39   ar
    34    39    40   ar
    35    40    41   ar
    36    41    42   ar
    37    42    43   ar
    38    43    44    1
    39    10    11    1
    40    11    12    1
    41    15    16   ar
    42    16    17   ar
    43    17    18   ar
    44    18    13   ar
    45     7     1    1
    46    43    38   ar
    47    26    21   ar
    48    12     7    1
    49    32    27   ar
@<TRIPOS>MOLECULE
*****
 44 49 0 0 0
SMALL
GASTEIGER

@<TRIPOS>ATOM
      1 N         138.6013  141.1188  158.6005 N.am    1  UNL1       -0.2222
      2 C         138.6110  141.6869  159.9888 C.2     1  UNL1        0.3220
      3 O         137.6712  142.7270  160.5225 O.2     1  UNL1       -0.2512
      4 N         139.7257  141.0321  160.7497 N.am    1  UNL1       -0.1892
      5 C         140.4048  140.0594  159.8316 C.2     1  UNL1        0.2529
      6 O         141.5736  139.1864  160.1805 O.2     1  UNL1       -0.2724
      7 C         139.7099  140.1130  158.5033 C.3     1  UNL1        0.1391
      8 C         138.9205  140.2751  157.2382 C.3     1  UNL1        0.0449
      9 C         139.2724  139.4652  156.0257 C.3     1  UNL1        0.0746
     10 N         140.4137  138.4931  156.0784 N.3     1  UNL1       -0.2676
     11 C         141.2030  138.3311  157.3435 C.3     1  UNL1        0.0746
     12 C         140.8511  139.1410  158.5560 C.3     1  UNL1        0.0449
     13 C         136.9235  143.1161  155.6095 C.ar    1  UNL1        0.2293
     14 C         137.8748  142.7437  156.7078 C.ar    1  UNL1        0.0924
     15 C         137.6500  141.4913  157.5022 C.ar    1  UNL1        0.1453
     16 N         136.4738  140.6113  157.1982 N.ar    1  UNL1       -0.2084
     17 C         135.5225  140.9837  156.1000 C.ar    1  UNL1        0.2027
     18 N         135.7473  142.2361  155.3056 N.ar    1  UNL1       -0.1892
     19 C         138.1406  145.3888  155.2885 C.3     1  UNL1        0.2542
     20 O         137.1482  144.3684  154.8152 O.3     1  UNL1       -0.4560
     21 C         140.0962  141.3024  162.1778 C.ar    1  UNL1        0.0813
     22 C         140.8179  142.5668  162.5389 C.ar    1  UNL1        0.0185
     23 C         141.1884  142.8372  163.9670 C.ar    1  UNL1        0.0204
     24 C         140.8371  141.8432  165.0341 C.ar    1  UNL1        0.0811
     25 N         140.1153  140.5788  164.6730 N.ar    1  UNL1       -0.2425
     26 C         139.7449  140.3085  163.2448 C.ar    1  UNL1        0.1141
     27 C         141.2076  142.1136  166.4623 C.ar    1  UNL1        0.0137
     28 C         140.2718  142.8825  167.3472 C.ar    1  UNL1        0.0012
     29 C         140.6423  143.1529  168.7754 C.ar    1  UNL1        0.0012
     30 C         141.9486  142.6543  169.3185 C.ar    1  UNL1        0.0137
     31 C         142.8844  141.8855  168.4336 C.ar    1  UNL1       -0.0031
     32 C         142.5140  141.6151  167.0055 C.ar    1  UNL1       -0.0204
     33 C         143.4498  140.8462  166.1206 C.3     1  UNL1        0.0311
     34 C         142.3191  142.9247  170.7467 C.2     1  UNL1        0.0729
     35 O         141.6622  142.1512  171.8513 O.co2   1  UNL1       -0.5446
     36 O         143.3465  143.9687  171.0703 O.co2   1  UNL1       -0.5446
     37 C         140.7655  137.6832  154.8658 C.3     1  UNL1        0.1183
     38 C         141.5600  136.4194  155.0128 C.ar    1  UNL1        0.0712
     39 N         140.8557  135.1005  155.1331 N.ar    1  UNL1       -0.2471
     40 C         141.6502  133.8366  155.2801 C.ar    1  UNL1        0.0985
     41 C         143.1490  133.8917  155.3066 C.ar    1  UNL1        0.0203
     42 C         143.8532  135.2106  155.1862 C.ar    1  UNL1       -0.0015
     43 C         143.0588  136.4744  155.0393 C.ar    1  UNL1       -0.0069
     44 C         143.7631  137.7933  154.9189 C.3     1  UNL1        0.0323
@<TRIPOS>UNITY_ATOM_ATTR
35 1
charge -1
@<TRIPOS>BOND
     1    19    20    1
     2    20    13    1
     3    13    14   ar
     4    14    15   ar
     5    15     1    1
     6     1     2   am
     7     2     3    2
     8     2     4   am
     9     4    21    1
    10    21    22   ar
    11    22    23   ar
    12    23    24   ar
    13    24    27    1
    14    27    28   ar
    15    28    29   ar
    16    29    30   ar
    17    30    34    1
    18    34    35   ar
    19    34    36   ar
    20    30    31   ar
    21    31    32   ar
    22    32    33    1
    23    24    25   ar
    24    25    26   ar
    25     4     5   am
    26     5     6    2
    27     5     7    1
    28     7     8    1
    29     8     9    1
    30     9    10    1
    31    10    37    1
    32    37    38    1
    33    38    39   ar
    34    39    40   ar
    35    40    41   ar
    36    41    42   ar
    37    42    43   ar
    38    43    44    1
    39    10    11    1
    40    11    12    1
    41    15    16   ar
    42    16    17   ar
    43    17    18   ar
    44    18    13   ar
    45     7     1    1
    46    43    38   ar
    47    26    21   ar
    48    12     7    1
    49    32    27   ar
@<TRIPOS>MOLECULE
*****
 44 49 0 0 0
SMALL
GASTEIGER

@<TRIPOS>ATOM
      1 N         138.9951  141.1532  158.3230 N.am    1  UNL1       -0.2222
      2 C         138.8238  141.6904  159.7130 C.2     1  UNL1        0.3220
      3 O         138.0216  142.8977  160.0991 O.2     1  UNL1       -0.2512
      4 N         139.5957  140.8084  160.6493 N.am    1  UNL1       -0.1892
      5 C         140.2439  139.7261  159.8379 C.2     1  UNL1        0.2529
      6 O         141.1111  138.6242  160.3706 O.2     1  UNL1       -0.2724
      7 C         139.8728  139.9392  158.4001 C.3     1  UNL1        0.1391
      8 C         139.4199  140.2772  157.0107 C.3     1  UNL1        0.0449
      9 C         139.8507  139.4258  155.8535 C.3     1  UNL1        0.0746
     10 N         140.7346  138.2363  156.0856 N.3     1  UNL1       -0.2676
     11 C         141.1875  137.8982  157.4750 C.3     1  UNL1        0.0746
     12 C         140.7566  138.7496  158.6323 C.3     1  UNL1        0.0449
     13 C         136.4031  141.9186  155.4169 C.ar    1  UNL1        0.2293
     14 C         137.0040  141.3429  156.6649 C.ar    1  UNL1        0.0924
     15 C         138.3943  141.7289  157.0750 C.ar    1  UNL1        0.1453
     16 N         139.1837  142.6905  156.2371 N.ar    1  UNL1       -0.2084
     17 C         138.5829  143.2662  154.9891 C.ar    1  UNL1        0.2027
     18 N         137.1925  142.8802  154.5790 N.ar    1  UNL1       -0.1892
     19 C         134.2647  140.4892  155.7822 C.3     1  UNL1        0.2542
     20 O         135.0129  141.5327  155.0068 O.3     1  UNL1       -0.4560
     21 C         139.7007  140.9788  162.1358 C.ar    1  UNL1        0.0813
     22 C         138.4660  141.2222  162.9519 C.ar    1  UNL1        0.0185
     23 C         138.5711  141.3926  164.4385 C.ar    1  UNL1        0.0204
     24 C         139.9109  141.3197  165.1090 C.ar    1  UNL1        0.0811
     25 N         141.1457  141.0763  164.2928 N.ar    1  UNL1       -0.2425
     26 C         141.0406  140.9059  162.8062 C.ar    1  UNL1        0.1141
     27 C         140.0160  141.4901  166.5955 C.ar    1  UNL1        0.0137
     28 C         140.6043  142.7461  167.1668 C.ar    1  UNL1        0.0012
     29 C         140.7094  142.9165  168.6533 C.ar    1  UNL1        0.0012
     30 C         140.2261  141.8308  169.5686 C.ar    1  UNL1        0.0137
     31 C         139.6378  140.5748  168.9974 C.ar    1  UNL1       -0.0031
     32 C         139.5327  140.4044  167.5109 C.ar    1  UNL1       -0.0204
     33 C         138.9444  139.1484  166.9397 C.3     1  UNL1        0.0311
     34 C         140.3312  142.0012  171.0552 C.2     1  UNL1        0.0729
     35 O         139.4825  143.0210  171.7551 O.co2   1  UNL1       -0.5446
     36 O         141.2850  141.1518  171.8420 O.co2   1  UNL1       -0.5446
     37 C         141.1654  137.3848  154.9282 C.3     1  UNL1        0.1183
     38 C         141.7844  136.0410  155.1752 C.ar    1  UNL1        0.0712
     39 N         140.9269  134.8104  155.1836 N.ar    1  UNL1       -0.2471
     40 C         141.5459  133.4665  155.4306 C.ar    1  UNL1        0.0985
     41 C         143.0225  133.3534  155.6691 C.ar    1  UNL1        0.0203
     42 C         143.8800  134.5841  155.6607 C.ar    1  UNL1       -0.0015
     43 C         143.2611  135.9279  155.4138 C.ar    1  UNL1       -0.0069
     44 C         144.1186  137.1585  155.4053 C.3     1  UNL1        0.0323
@<TRIPOS>UNITY_ATOM_ATTR
35 1
charge -1
@<TRIPOS>BOND
     1    19    20    1
     2    20    13    1
     3    13    14   ar
     4    14    15   ar
     5    15     1    1
     6     1     2   am
     7     2     3    2
     8     2     4   am
     9     4    21    1
    10    21    22   ar
    11    22    23   ar
    12    23    24   ar
    13    24    27    1
    14    27    28   ar
    15    28    29   ar
    16    29    30   ar
    17    30    34    1
    18    34    35   ar
    19    34    36   ar
    20    30    31   ar
    21    31    32   ar
    22    32    33    1
    23    24    25   ar
    24    25    26   ar
    25     4     5   am
    26     5     6    2
    27     5     7    1
    28     7     8    1
    29     8     9    1
    30     9    10    1
    31    10    37    1
    32    37    38    1
    33    38    39   ar
    34    39    40   ar
    35    40    41   ar
    36    41    42   ar
    37    42    43   ar
    38    43    44    1
    39    10    11    1
    40    11    12    1
    41    15    16   ar
    42    16    17   ar
    43    17    18   ar
    44    18    13   ar
    45     7     1    1
    46    43    38   ar
    47    26    21   ar
    48    12     7    1
    49    32    27   ar
@<TRIPOS>MOLECULE
*****
 44 49 0 0 0
SMALL
GASTEIGER

@<TRIPOS>ATOM
      1 N         140.4162  140.0859  158.2007 N.am    1  UNL1       -0.2222
      2 C         140.0237  140.7476  159.4885 C.2     1  UNL1        0.3220
      3 O         139.1052  141.9248  159.6306 O.2     1  UNL1       -0.2512
      4 N         140.7111  140.0252  160.6091 N.am    1  UNL1       -0.1892
      5 C         141.5284  138.9172  160.0140 C.2     1  UNL1        0.2529
      6 O         142.3787  137.9427  160.7738 O.2     1  UNL1       -0.2724
      7 C         141.3462  138.9546  158.5255 C.3     1  UNL1        0.1391
      8 C         141.0689  139.1149  157.0601 C.3     1  UNL1        0.0449
      9 C         141.7049  138.1845  156.0703 C.3     1  UNL1        0.0746
     10 N         142.6182  137.0938  156.5459 N.3     1  UNL1       -0.2676
     11 C         142.8955  136.9335  158.0113 C.3     1  UNL1        0.0746
     12 C         142.2595  137.8639  159.0011 C.3     1  UNL1        0.0449
     13 C         138.2370  140.3103  154.8916 C.ar    1  UNL1        0.2293
     14 C         138.6942  139.9109  156.2633 C.ar    1  UNL1        0.0924
     15 C         139.9590  140.4853  156.8291 C.ar    1  UNL1        0.1453
     16 N         140.7667  141.4592  156.0233 N.ar    1  UNL1       -0.2084
     17 C         140.3095  141.8587  154.6517 C.ar    1  UNL1        0.2027
     18 N         139.0446  141.2842  154.0858 N.ar    1  UNL1       -0.1892
     19 C         136.8263  138.2511  154.1713 C.3     1  UNL1        0.2542
     20 O         136.9722  139.7359  154.3257 O.3     1  UNL1       -0.4560
     21 C         140.6006  140.3534  162.0685 C.ar    1  UNL1        0.0813
     22 C         141.8399  140.4891  162.9027 C.ar    1  UNL1        0.0185
     23 C         141.7294  140.8172  164.3622 C.ar    1  UNL1        0.0204
     24 C         140.3796  141.0097  164.9875 C.ar    1  UNL1        0.0811
     25 N         139.1403  140.8739  164.1534 N.ar    1  UNL1       -0.2425
     26 C         139.2509  140.5458  162.6939 C.ar    1  UNL1        0.1141
     27 C         140.2691  141.3378  166.4471 C.ar    1  UNL1        0.0137
     28 C         140.7871  142.6477  166.9626 C.ar    1  UNL1        0.0012
     29 C         140.6765  142.9759  168.4221 C.ar    1  UNL1        0.0012
     30 C         140.0480  141.9940  169.3660 C.ar    1  UNL1        0.0137
     31 C         139.5300  140.6841  168.8504 C.ar    1  UNL1       -0.0031
     32 C         139.6405  140.3560  167.3910 C.ar    1  UNL1       -0.0204
     33 C         139.1225  139.0460  166.8755 C.3     1  UNL1        0.0311
     34 C         139.9375  142.3221  170.8255 C.2     1  UNL1        0.0729
     35 O         139.0622  143.4541  171.2755 O.co2   1  UNL1       -0.5446
     36 O         140.7023  141.5183  171.8350 O.co2   1  UNL1       -0.5446
     37 C         143.2543  136.1634  155.5560 C.3     1  UNL1        0.1183
     38 C         142.8478  134.7201  155.5148 C.ar    1  UNL1        0.0712
     39 N         143.1451  133.8237  156.6802 N.ar    1  UNL1       -0.2471
     40 C         142.7386  132.3803  156.6390 C.ar    1  UNL1        0.0985
     41 C         142.0348  131.8335  155.4325 C.ar    1  UNL1        0.0203
     42 C         141.7375  132.7300  154.2672 C.ar    1  UNL1       -0.0015
     43 C         142.1439  134.1732  154.3083 C.ar    1  UNL1       -0.0069
     44 C         141.8466  135.0697  153.1430 C.3     1  UNL1        0.0323
@<TRIPOS>UNITY_ATOM_ATTR
35 1
charge -1
@<TRIPOS>BOND
     1    19    20    1
     2    20    13    1
     3    13    14   ar
     4    14    15   ar
     5    15     1    1
     6     1     2   am
     7     2     3    2
     8     2     4   am
     9     4    21    1
    10    21    22   ar
    11    22    23   ar
    12    23    24   ar
    13    24    27    1
    14    27    28   ar
    15    28    29   ar
    16    29    30   ar
    17    30    34    1
    18    34    35   ar
    19    34    36   ar
    20    30    31   ar
    21    31    32   ar
    22    32    33    1
    23    24    25   ar
    24    25    26   ar
    25     4     5   am
    26     5     6    2
    27     5     7    1
    28     7     8    1
    29     8     9    1
    30     9    10    1
    31    10    37    1
    32    37    38    1
    33    38    39   ar
    34    39    40   ar
    35    40    41   ar
    36    41    42   ar
    37    42    43   ar
    38    43    44    1
    39    10    11    1
    40    11    12    1
    41    15    16   ar
    42    16    17   ar
    43    17    18   ar
    44    18    13   ar
    45     7     1    1
    46    43    38   ar
    47    26    21   ar
    48    12     7    1
    49    32    27   ar
