@<TRIPOS>MOLECULE
*****
 19 20 0 0 0
SMALL
GASTEIGER

@<TRIPOS>ATOM
      1 C         140.5066  140.4215  167.2347 C.ar    1  UNL1        0.0511
      2 C         141.8849  139.9574  166.8676 C.ar    1  UNL1        0.0163
      3 C         142.7730  139.3462  167.9105 C.ar    1  UNL1        0.0253
      4 C         142.2829  139.1991  169.3205 C.ar    1  UNL1        0.1365
      5 C         140.9045  139.6632  169.6876 C.ar    1  UNL1        0.1541
      6 O         140.4143  139.5161  171.0976 O.3     1  UNL1       -0.5039
      7 C         140.0164  140.2744  168.6447 C.ar    1  UNL1        0.0527
      8 H         140.9691  139.1343  171.7491 H       1  UNL1        0.2923
      9 C         139.8043  142.4674  165.7957 C.3     1  UNL1        0.1122
     10 N         139.6184  141.0327  166.1918 N.pl3   1  UNL1       -0.3040
     11 C         138.5444  140.2092  165.5451 C.3     1  UNL1        0.1122
     12 N         143.1710  138.5879  170.3634 N.2     1  UNL1       -0.1435
     13 N         143.7016  137.1975  170.1754 N.2     1  UNL1       -0.1284
     14 C         144.5897  136.5863  171.2183 C.ar    1  UNL1        0.1838
     15 C         144.4787  135.1242  171.5347 C.ar    1  UNL1        0.0406
     16 C         145.3668  134.5130  172.5776 C.ar    1  UNL1        0.0048
     17 C         146.3660  135.3639  173.3041 C.ar    1  UNL1        0.0208
     18 C         146.4770  136.8259  172.9876 C.ar    1  UNL1        0.1006
     19 N         145.5889  137.4371  171.9448 N.ar    1  UNL1       -0.2236
@<TRIPOS>BOND
     1     9    10    1
     2    10    11    1
     3    10     1    1
     4     1     2   ar
     5     2     3   ar
     6     3     4   ar
     7     4    12    1
     8    12    13    2
     9    13    14    1
    10    14    15   ar
    11    15    16   ar
    12    16    17   ar
    13    17    18   ar
    14    18    19   ar
    15     4     5   ar
    16     5     6    1
    17     5     7   ar
    18     7     1   ar
    19    19    14   ar
    20     6     8    1
@<TRIPOS>MOLECULE
*****
 19 20 0 0 0
SMALL
GASTEIGER

@<TRIPOS>ATOM
      1 C         140.4849  140.4589  167.2179 C.ar    1  UNL1        0.0511
      2 C         140.1551  140.6170  168.6726 C.ar    1  UNL1        0.0163
      3 C         141.0425  140.0021  169.7140 C.ar    1  UNL1        0.0253
      4 C         142.2597  139.2291  169.3006 C.ar    1  UNL1        0.1365
      5 C         142.5895  139.0710  167.8459 C.ar    1  UNL1        0.1541
      6 O         143.8067  138.2980  167.4325 O.3     1  UNL1       -0.5039
      7 C         141.7021  139.6859  166.8046 C.ar    1  UNL1        0.0527
      8 H         144.3610  137.9138  168.0830 H       1  UNL1        0.2923
      9 C         139.7795  142.5118  165.7903 C.3     1  UNL1        0.1122
     10 N         139.5976  141.0739  166.1766 N.pl3   1  UNL1       -0.3040
     11 C         138.5282  140.2509  165.5214 C.3     1  UNL1        0.1122
     12 N         143.1470  138.6141  170.3420 N.2     1  UNL1       -0.1435
     13 N         143.6736  137.2225  170.1519 N.2     1  UNL1       -0.1284
     14 C         144.5610  136.6076  171.1932 C.ar    1  UNL1        0.1838
     15 C         144.3901  135.1650  171.5673 C.ar    1  UNL1        0.0406
     16 C         145.2775  134.5501  172.6086 C.ar    1  UNL1        0.0048
     17 C         146.3357  135.3777  173.2759 C.ar    1  UNL1        0.0208
     18 C         146.5065  136.8202  172.9019 C.ar    1  UNL1        0.1006
     19 N         145.6192  137.4352  171.8605 N.ar    1  UNL1       -0.2236
@<TRIPOS>BOND
     1     9    10    1
     2    10    11    1
     3    10     1    1
     4     1     2   ar
     5     2     3   ar
     6     3     4   ar
     7     4    12    1
     8    12    13    2
     9    13    14    1
    10    14    15   ar
    11    15    16   ar
    12    16    17   ar
    13    17    18   ar
    14    18    19   ar
    15     4     5   ar
    16     5     6    1
    17     5     7   ar
    18     7     1   ar
    19    19    14   ar
    20     6     8    1
@<TRIPOS>MOLECULE
*****
 19 20 0 0 0
SMALL
GASTEIGER

@<TRIPOS>ATOM
      1 C         140.3889  141.8947  167.3552 C.ar    1  UNL1        0.0511
      2 C         140.5489  142.3310  168.7813 C.ar    1  UNL1        0.0163
      3 C         139.9091  141.5404  169.8838 C.ar    1  UNL1        0.0253
      4 C         139.1094  140.3133  169.5602 C.ar    1  UNL1        0.1365
      5 C         138.9494  139.8770  168.1341 C.ar    1  UNL1        0.1541
      6 O         138.1497  138.6499  167.8104 O.3     1  UNL1       -0.5039
      7 C         139.5892  140.6676  167.0315 C.ar    1  UNL1        0.0527
      8 H         137.7500  138.1560  168.4991 H       1  UNL1        0.2923
      9 C         142.5075  142.5887  166.0211 C.3     1  UNL1        0.1122
     10 N         141.0287  142.6853  166.2526 N.pl3   1  UNL1       -0.3040
     11 C         140.1897  143.5726  165.3817 C.3     1  UNL1        0.1122
     12 N         138.4696  139.5227  170.6627 N.2     1  UNL1       -0.1435
     13 N         137.0947  138.9528  170.4766 N.2     1  UNL1       -0.1284
     14 C         136.4549  138.1622  171.5791 C.ar    1  UNL1        0.1838
     15 C         135.1733  138.6377  172.1969 C.ar    1  UNL1        0.0406
     16 C         134.5336  137.8471  173.2994 C.ar    1  UNL1        0.0048
     17 C         135.1753  136.5809  173.7842 C.ar    1  UNL1        0.0208
     18 C         136.4568  136.1054  173.1664 C.ar    1  UNL1        0.1006
     19 N         137.0966  136.8960  172.0639 N.ar    1  UNL1       -0.2236
@<TRIPOS>BOND
     1     9    10    1
     2    10    11    1
     3    10     1    1
     4     1     2   ar
     5     2     3   ar
     6     3     4   ar
     7     4    12    1
     8    12    13    2
     9    13    14    1
    10    14    15   ar
    11    15    16   ar
    12    16    17   ar
    13    17    18   ar
    14    18    19   ar
    15     4     5   ar
    16     5     6    1
    17     5     7   ar
    18     7     1   ar
    19    19    14   ar
    20     6     8    1
@<TRIPOS>MOLECULE
*****
 19 20 0 0 0
SMALL
GASTEIGER

@<TRIPOS>ATOM
      1 C         143.5510  142.7761  160.4366 C.ar    1  UNL1        0.0511
      2 C         142.3160  142.7330  161.2868 C.ar    1  UNL1        0.0163
      3 C         142.4208  142.3985  162.7453 C.ar    1  UNL1        0.0253
      4 C         143.7605  142.1070  163.3535 C.ar    1  UNL1        0.1365
      5 C         144.9955  142.1500  162.5033 C.ar    1  UNL1        0.1541
      6 O         146.3354  141.8585  163.1115 O.3     1  UNL1       -0.5039
      7 C         144.8907  142.4845  161.0449 C.ar    1  UNL1        0.0527
      8 H         146.4009  141.6495  164.0226 H       1  UNL1        0.2923
      9 C         142.3892  144.0619  158.5009 C.3     1  UNL1        0.1122
     10 N         143.4462  143.1106  158.9782 N.pl3   1  UNL1       -0.3040
     11 C         144.3984  142.4939  157.9969 C.3     1  UNL1        0.1122
     12 N         143.8653  141.7724  164.8120 N.2     1  UNL1       -0.1435
     13 N         142.6219  141.5947  165.6319 N.2     1  UNL1       -0.1284
     14 C         142.7267  141.2602  167.0904 C.ar    1  UNL1        0.1838
     15 C         143.1724  142.3056  168.0695 C.ar    1  UNL1        0.0406
     16 C         143.2772  141.9710  169.5280 C.ar    1  UNL1        0.0048
     17 C         142.9363  140.5911  170.0073 C.ar    1  UNL1        0.0208
     18 C         142.4906  139.5458  169.0282 C.ar    1  UNL1        0.1006
     19 N         142.3858  139.8804  167.5697 N.ar    1  UNL1       -0.2236
@<TRIPOS>BOND
     1     9    10    1
     2    10    11    1
     3    10     1    1
     4     1     2   ar
     5     2     3   ar
     6     3     4   ar
     7     4    12    1
     8    12    13    2
     9    13    14    1
    10    14    15   ar
    11    15    16   ar
    12    16    17   ar
    13    17    18   ar
    14    18    19   ar
    15     4     5   ar
    16     5     6    1
    17     5     7   ar
    18     7     1   ar
    19    19    14   ar
    20     6     8    1
@<TRIPOS>MOLECULE
*****
 19 20 0 0 0
SMALL
GASTEIGER

@<TRIPOS>ATOM
      1 C         141.0920  145.3265  155.6468 C.ar    1  UNL1        0.0511
      2 C         139.9109  144.4035  155.7004 C.ar    1  UNL1        0.0163
      3 C         139.3902  143.9279  157.0243 C.ar    1  UNL1        0.0253
      4 C         140.0505  144.3754  158.2946 C.ar    1  UNL1        0.1365
      5 C         141.2316  145.2985  158.2409 C.ar    1  UNL1        0.1541
      6 O         141.8920  145.7460  159.5112 O.3     1  UNL1       -0.5039
      7 C         141.7523  145.7740  156.9170 C.ar    1  UNL1        0.0527
      8 H         141.5668  145.4490  160.3382 H       1  UNL1        0.2923
      9 C         142.8777  145.2226  153.7625 C.3     1  UNL1        0.1122
     10 N         141.6127  145.8021  154.3229 N.pl3   1  UNL1       -0.3040
     11 C         140.8685  146.8571  153.5594 C.3     1  UNL1        0.1122
     12 N         139.5298  143.8999  159.6185 N.2     1  UNL1       -0.1435
     13 N         139.5426  144.8193  160.8035 N.2     1  UNL1       -0.1284
     14 C         139.0219  144.3437  162.1274 C.ar    1  UNL1        0.1838
     15 C         139.4565  145.0231  163.3922 C.ar    1  UNL1        0.0406
     16 C         138.9358  144.5476  164.7161 C.ar    1  UNL1        0.0048
     17 C         137.9804  143.3926  164.7752 C.ar    1  UNL1        0.0208
     18 C         137.5459  142.7132  163.5105 C.ar    1  UNL1        0.1006
     19 N         138.0666  143.1888  162.1866 N.ar    1  UNL1       -0.2236
@<TRIPOS>BOND
     1     9    10    1
     2    10    11    1
     3    10     1    1
     4     1     2   ar
     5     2     3   ar
     6     3     4   ar
     7     4    12    1
     8    12    13    2
     9    13    14    1
    10    14    15   ar
    11    15    16   ar
    12    16    17   ar
    13    17    18   ar
    14    18    19   ar
    15     4     5   ar
    16     5     6    1
    17     5     7   ar
    18     7     1   ar
    19    19    14   ar
    20     6     8    1
@<TRIPOS>MOLECULE
*****
 19 20 0 0 0
SMALL
GASTEIGER

@<TRIPOS>ATOM
      1 C         140.7302  146.0139  156.3761 C.ar    1  UNL1        0.0511
      2 C         142.0302  145.2726  156.2744 C.ar    1  UNL1        0.0163
      3 C         142.5997  144.5880  157.4815 C.ar    1  UNL1        0.0253
      4 C         141.8691  144.6447  158.7903 C.ar    1  UNL1        0.1365
      5 C         140.5691  145.3860  158.8920 C.ar    1  UNL1        0.1541
      6 O         139.8384  145.4428  160.2008 O.3     1  UNL1       -0.5039
      7 C         139.9996  146.0706  157.6848 C.ar    1  UNL1        0.0527
      8 H         140.1941  145.0152  160.9549 H       1  UNL1        0.2923
      9 C         139.0388  147.6819  155.3240 C.3     1  UNL1        0.1122
     10 N         140.1607  146.6984  155.1689 N.pl3   1  UNL1       -0.3040
     11 C         140.7132  146.3995  153.8068 C.3     1  UNL1        0.1122
     12 N         142.4385  143.9602  159.9974 N.2     1  UNL1       -0.1435
     13 N         142.4854  144.6774  161.3139 N.2     1  UNL1       -0.1284
     14 C         143.0549  143.9928  162.5210 C.ar    1  UNL1        0.1838
     15 C         143.6894  144.8025  163.6129 C.ar    1  UNL1        0.0406
     16 C         144.2588  144.1179  164.8200 C.ar    1  UNL1        0.0048
     17 C         144.1938  142.6237  164.9353 C.ar    1  UNL1        0.0208
     18 C         143.5594  141.8141  163.8435 C.ar    1  UNL1        0.1006
     19 N         142.9899  142.4987  162.6364 N.ar    1  UNL1       -0.2236
@<TRIPOS>BOND
     1     9    10    1
     2    10    11    1
     3    10     1    1
     4     1     2   ar
     5     2     3   ar
     6     3     4   ar
     7     4    12    1
     8    12    13    2
     9    13    14    1
    10    14    15   ar
    11    15    16   ar
    12    16    17   ar
    13    17    18   ar
    14    18    19   ar
    15     4     5   ar
    16     5     6    1
    17     5     7   ar
    18     7     1   ar
    19    19    14   ar
    20     6     8    1
@<TRIPOS>MOLECULE
*****
 19 20 0 0 0
SMALL
GASTEIGER

@<TRIPOS>ATOM
      1 C         138.3775  139.5802  164.8388 C.ar    1  UNL1        0.0511
      2 C         137.8517  140.9066  164.3759 C.ar    1  UNL1        0.0163
      3 C         137.6201  141.1530  162.9145 C.ar    1  UNL1        0.0253
      4 C         137.9141  140.0730  161.9160 C.ar    1  UNL1        0.1365
      5 C         138.4399  138.7466  162.3789 C.ar    1  UNL1        0.1541
      6 O         138.7340  137.6665  161.3803 O.3     1  UNL1       -0.5039
      7 C         138.6716  138.5002  163.8402 C.ar    1  UNL1        0.0527
      8 H         138.5893  137.8204  160.4674 H       1  UNL1        0.2923
      9 C         137.6461  138.4888  167.0802 C.3     1  UNL1        0.1122
     10 N         138.6091  139.3338  166.3001 N.pl3   1  UNL1       -0.3040
     11 C         139.8038  139.9324  166.9815 C.3     1  UNL1        0.1122
     12 N         137.6825  140.3194  160.4546 N.2     1  UNL1       -0.1435
     13 N         138.7633  140.0106  159.4614 N.2     1  UNL1       -0.1284
     14 C         138.5316  140.2570  158.0000 C.ar    1  UNL1        0.1838
     15 C         139.6899  140.2589  157.0469 C.ar    1  UNL1        0.0406
     16 C         139.4583  140.5053  155.5855 C.ar    1  UNL1        0.0048
     17 C         138.0683  140.7498  155.0773 C.ar    1  UNL1        0.0208
     18 C         136.9100  140.7479  156.0304 C.ar    1  UNL1        0.1006
     19 N         137.1417  140.5015  157.4918 N.ar    1  UNL1       -0.2236
@<TRIPOS>BOND
     1     9    10    1
     2    10    11    1
     3    10     1    1
     4     1     2   ar
     5     2     3   ar
     6     3     4   ar
     7     4    12    1
     8    12    13    2
     9    13    14    1
    10    14    15   ar
    11    15    16   ar
    12    16    17   ar
    13    17    18   ar
    14    18    19   ar
    15     4     5   ar
    16     5     6    1
    17     5     7   ar
    18     7     1   ar
    19    19    14   ar
    20     6     8    1
@<TRIPOS>MOLECULE
*****
 19 20 0 0 0
SMALL
GASTEIGER

@<TRIPOS>ATOM
      1 C         140.6808  144.1441  163.3460 C.ar    1  UNL1        0.0511
      2 C         141.6829  143.4982  162.4357 C.ar    1  UNL1        0.0163
      3 C         141.8393  143.9859  161.0259 C.ar    1  UNL1        0.0253
      4 C         140.9937  145.1196  160.5263 C.ar    1  UNL1        0.1365
      5 C         139.9916  145.7655  161.4365 C.ar    1  UNL1        0.1541
      6 O         139.1458  146.8992  160.9369 O.3     1  UNL1       -0.5039
      7 C         139.8352  145.2777  162.8464 C.ar    1  UNL1        0.0527
      8 H         139.2435  147.2039  160.0563 H       1  UNL1        0.2923
      9 C         139.3600  144.1144  165.5830 C.3     1  UNL1        0.1122
     10 N         140.5244  143.6564  164.7558 N.pl3   1  UNL1       -0.3040
     11 C         141.5324  142.7106  165.3384 C.3     1  UNL1        0.1122
     12 N         141.1501  145.6073  159.1165 N.2     1  UNL1       -0.1435
     13 N         139.9558  145.6828  158.2121 N.2     1  UNL1       -0.1284
     14 C         140.1122  146.1706  156.8023 C.ar    1  UNL1        0.1838
     15 C         139.2681  147.3058  156.3034 C.ar    1  UNL1        0.0406
     16 C         139.4245  147.7936  154.8936 C.ar    1  UNL1        0.0048
     17 C         140.4250  147.1461  153.9826 C.ar    1  UNL1        0.0208
     18 C         141.2691  146.0109  154.4815 C.ar    1  UNL1        0.1006
     19 N         141.1127  145.5231  155.8913 N.ar    1  UNL1       -0.2236
@<TRIPOS>BOND
     1     9    10    1
     2    10    11    1
     3    10     1    1
     4     1     2   ar
     5     2     3   ar
     6     3     4   ar
     7     4    12    1
     8    12    13    2
     9    13    14    1
    10    14    15   ar
    11    15    16   ar
    12    16    17   ar
    13    17    18   ar
    14    18    19   ar
    15     4     5   ar
    16     5     6    1
    17     5     7   ar
    18     7     1   ar
    19    19    14   ar
    20     6     8    1
@<TRIPOS>MOLECULE
*****
 19 20 0 0 0
SMALL
GASTEIGER

@<TRIPOS>ATOM
      1 C         142.7751  138.5347  160.0234 C.ar    1  UNL1        0.0511
      2 C         141.4326  138.2452  160.6266 C.ar    1  UNL1        0.0163
      3 C         141.2619  138.2555  162.1168 C.ar    1  UNL1        0.0253
      4 C         142.4337  138.5554  163.0039 C.ar    1  UNL1        0.1365
      5 C         143.7762  138.8450  162.4007 C.ar    1  UNL1        0.1541
      6 O         144.9480  139.1449  163.2878 O.3     1  UNL1       -0.5039
      7 C         143.9469  138.8346  160.9105 C.ar    1  UNL1        0.0527
      8 H         144.8414  139.1514  164.2187 H       1  UNL1        0.2923
      9 C         142.7072  137.2616  157.7597 C.3     1  UNL1        0.1122
     10 N         142.9459  138.5243  158.5332 N.pl3   1  UNL1       -0.3040
     11 C         143.3553  139.7768  157.8165 C.3     1  UNL1        0.1122
     12 N         142.2629  138.5658  164.4941 N.2     1  UNL1       -0.1435
     13 N         141.6415  139.7521  165.1696 N.2     1  UNL1       -0.1284
     14 C         141.4707  139.7625  166.6598 C.ar    1  UNL1        0.1838
     15 C         140.1318  140.0757  167.2591 C.ar    1  UNL1        0.0406
     16 C         139.9610  140.0861  168.7493 C.ar    1  UNL1        0.0048
     17 C         141.1293  139.7832  169.6402 C.ar    1  UNL1        0.0208
     18 C         142.4681  139.4699  169.0409 C.ar    1  UNL1        0.1006
     19 N         142.6388  139.4596  167.5506 N.ar    1  UNL1       -0.2236
@<TRIPOS>BOND
     1     9    10    1
     2    10    11    1
     3    10     1    1
     4     1     2   ar
     5     2     3   ar
     6     3     4   ar
     7     4    12    1
     8    12    13    2
     9    13    14    1
    10    14    15   ar
    11    15    16   ar
    12    16    17   ar
    13    17    18   ar
    14    18    19   ar
    15     4     5   ar
    16     5     6    1
    17     5     7   ar
    18     7     1   ar
    19    19    14   ar
    20     6     8    1
