@<TRIPOS>MOLECULE
*****
 46 53 0 0 0
SMALL
GASTEIGER

@<TRIPOS>ATOM
      1 C         143.3614  136.8459  156.2780 C.ar    1  UNL1        0.0176
      2 C         144.3559  137.4698  155.3446 C.ar    1  UNL1        0.0012
      3 C         144.7211  138.9169  155.4956 C.ar    1  UNL1       -0.0029
      4 C         144.0916  139.7399  156.5802 C.ar    1  UNL1       -0.0061
      5 C         143.0969  139.1159  157.5136 C.ar    1  UNL1       -0.0029
      6 C         142.7318  137.6689  157.3625 C.ar    1  UNL1        0.0012
      7 C         142.1276  128.6661  156.0183 C.ar    1  UNL1        0.1637
      8 N         140.9306  128.8970  155.1443 N.ar    1  UNL1       -0.1317
      9 N         140.7903  130.3751  154.9313 N.ar    1  UNL1       -0.1286
     10 C         141.9006  131.0579  155.6737 C.ar    1  UNL1        0.1715
     11 C         142.2658  132.5049  155.8248 C.ar    1  UNL1        0.0540
     12 C         141.4393  133.5611  155.1529 C.ar    1  UNL1        0.0061
     13 C         141.8045  135.0081  155.3040 C.ar    1  UNL1        0.0178
     14 C         142.9962  135.3988  156.1269 C.ar    1  UNL1        0.0812
     15 N         143.8226  134.3427  156.7987 N.ar    1  UNL1       -0.2452
     16 C         143.4574  132.8956  156.6477 C.ar    1  UNL1        0.0857
     17 C         144.2839  131.8395  157.3195 C.ar    1  UNL1        0.0383
     18 C         143.9187  130.3924  157.1684 C.ar    1  UNL1        0.0842
     19 N         142.7270  130.0016  156.3455 N.ar    1  UNL1       -0.2748
     20 C         140.9780  136.0643  154.6321 C.ar    1  UNL1        0.0015
     21 C         141.3460  136.5444  153.2595 C.ar    1  UNL1        0.0000
     22 C         140.5195  137.6005  152.5878 C.ar    1  UNL1        0.0000
     23 C         139.3248  138.1766  153.2885 C.ar    1  UNL1        0.0000
     24 C         138.9568  137.6965  154.6611 C.ar    1  UNL1        0.0000
     25 C         139.7834  136.6403  155.3329 C.ar    1  UNL1        0.0000
     26 CL        141.8234  126.5139  157.4415 Cl      1  UNL1       -0.1050
     27 C         142.6358  127.3337  156.4835 C.3     1  UNL1        0.1606
     28 C         144.4567  141.1869  156.7313 C.3     1  UNL1        0.0991
     29 N         143.4402  142.2511  156.4408 N.3     1  UNL1       -0.2689
     30 C         143.1447  143.3058  157.4656 C.3     1  UNL1        0.0728
     31 C         142.1283  144.3699  157.1752 C.3     1  UNL1        0.0249
     32 C         141.4073  144.3794  155.8598 C.3     1  UNL1        0.0613
     33 C         141.7028  143.3247  154.8350 C.3     1  UNL1        0.0249
     34 C         142.7193  142.2606  155.1255 C.3     1  UNL1        0.0728
     35 C         140.3909  145.4435  155.5693 C.ar    1  UNL1        0.1396
     36 N         138.9136  145.2335  155.4160 N.ar    1  UNL1       -0.1335
     37 N         138.2829  146.5647  155.1331 N.ar    1  UNL1       -0.1277
     38 C         139.3705  147.5976  155.1114 C.ar    1  UNL1        0.1807
     39 N         140.6732  146.9047  155.3810 N.ar    1  UNL1       -0.3234
     40 H         141.5582  147.3336  155.4264 H       1  UNL1        0.1686
     41 C         139.1874  149.0656  154.8637 C.ar    1  UNL1        0.1169
     42 C         138.5846  149.9361  155.9262 C.ar    1  UNL1        0.0223
     43 C         138.4016  151.4042  155.6784 C.ar    1  UNL1        0.0032
     44 C         138.8214  152.0017  154.3681 C.ar    1  UNL1        0.0207
     45 C         139.4242  151.1312  153.3057 C.ar    1  UNL1        0.0989
     46 N         139.6072  149.6631  153.5534 N.ar    1  UNL1       -0.2407
@<TRIPOS>BOND
     1    26    27    1
     2    27     7    1
     3     7     8   ar
     4     8     9   ar
     5     9    10   ar
     6    10    11   ar
     7    11    12   ar
     8    12    13   ar
     9    13    20    1
    10    20    21   ar
    11    21    22   ar
    12    22    23   ar
    13    23    24   ar
    14    24    25   ar
    15    13    14   ar
    16    14     1    1
    17     1     2   ar
    18     2     3   ar
    19     3     4   ar
    20     4    28    1
    21    28    29    1
    22    29    30    1
    23    30    31    1
    24    31    32    1
    25    32    35    1
    26    35    36   ar
    27    36    37   ar
    28    37    38   ar
    29    38    41    1
    30    41    42   ar
    31    42    43   ar
    32    43    44   ar
    33    44    45   ar
    34    45    46   ar
    35    38    39   ar
    36    32    33    1
    37    33    34    1
    38     4     5   ar
    39     5     6   ar
    40    14    15   ar
    41    15    16   ar
    42    16    17   ar
    43    17    18   ar
    44    18    19   ar
    45    19     7   ar
    46    19    10   ar
    47    16    11   ar
    48    25    20   ar
    49     6     1   ar
    50    34    29    1
    51    39    35   ar
    52    46    41   ar
    53    39    40    1
@<TRIPOS>MOLECULE
*****
 46 53 0 0 0
SMALL
GASTEIGER

@<TRIPOS>ATOM
      1 C         141.3704  139.2337  162.4577 C.ar    1  UNL1        0.0176
      2 C         141.0364  140.2800  161.4363 C.ar    1  UNL1        0.0012
      3 C         141.5186  140.1303  160.0238 C.ar    1  UNL1       -0.0029
      4 C         142.3349  138.9342  159.6329 C.ar    1  UNL1       -0.0061
      5 C         142.6690  137.8878  160.6544 C.ar    1  UNL1       -0.0029
      6 C         142.1867  138.0375  162.0668 C.ar    1  UNL1        0.0012
      7 C         137.9281  139.5188  169.9789 C.ar    1  UNL1        0.1637
      8 N         139.0879  140.3429  170.4539 N.ar    1  UNL1       -0.1317
      9 N         140.0233  140.5368  169.2975 N.ar    1  UNL1       -0.1286
     10 C         139.4417  139.8325  168.1077 C.ar    1  UNL1        0.1715
     11 C         139.9239  139.6828  166.6952 C.ar    1  UNL1        0.0540
     12 C         141.2188  140.3119  166.2741 C.ar    1  UNL1        0.0061
     13 C         141.7009  140.1622  164.8616 C.ar    1  UNL1        0.0178
     14 C         140.8882  139.3834  163.8703 C.ar    1  UNL1        0.0812
     15 N         139.5933  138.7542  164.2914 N.ar    1  UNL1       -0.2452
     16 C         139.1111  138.9039  165.7039 C.ar    1  UNL1        0.0857
     17 C         137.8163  138.2748  166.1250 C.ar    1  UNL1        0.0383
     18 C         137.3340  138.4244  167.5375 C.ar    1  UNL1        0.0842
     19 N         138.1468  139.2033  168.5288 N.ar    1  UNL1       -0.2748
     20 C         142.9959  140.7914  164.4405 C.ar    1  UNL1        0.0015
     21 C         143.0198  142.2155  163.9700 C.ar    1  UNL1        0.0000
     22 C         144.3147  142.8446  163.5490 C.ar    1  UNL1        0.0000
     23 C         145.5858  142.0497  163.5985 C.ar    1  UNL1        0.0000
     24 C         145.5619  140.6256  164.0690 C.ar    1  UNL1        0.0000
     25 C         144.2669  139.9965  164.4900 C.ar    1  UNL1        0.0000
     26 CL        136.9104  137.9751  171.8041 Cl      1  UNL1       -0.1050
     27 C         136.7555  139.0861  170.8083 C.3     1  UNL1        0.1606
     28 C         142.8172  138.7845  158.2204 C.3     1  UNL1        0.0991
     29 N         142.4791  137.5492  157.4395 N.3     1  UNL1       -0.2689
     30 C         143.3367  136.3249  157.5641 C.3     1  UNL1        0.0728
     31 C         142.9986  135.0897  156.7833 C.3     1  UNL1        0.0249
     32 C         141.8028  135.0787  155.8777 C.3     1  UNL1        0.0613
     33 C         140.9452  136.3030  155.7531 C.3     1  UNL1        0.0249
     34 C         141.2833  137.5382  156.5340 C.3     1  UNL1        0.0728
     35 C         141.4647  133.8435  155.0968 C.ar    1  UNL1        0.1396
     36 N         141.0850  133.7935  153.6465 N.ar    1  UNL1       -0.1335
     37 N         140.8326  132.3605  153.2824 N.ar    1  UNL1       -0.1277
     38 C         141.0563  131.5246  154.5077 C.ar    1  UNL1        0.1807
     39 N         141.4470  132.4411  155.6290 N.ar    1  UNL1       -0.3234
     40 H         141.6552  132.1699  156.5522 H       1  UNL1        0.1686
     41 C         140.9143  130.0341  154.5962 C.ar    1  UNL1        0.1169
     42 C         139.6389  129.4310  155.1061 C.ar    1  UNL1        0.0223
     43 C         139.4970  127.9404  155.1946 C.ar    1  UNL1        0.0032
     44 C         140.6303  127.0527  154.7731 C.ar    1  UNL1        0.0207
     45 C         141.9056  127.6557  154.2632 C.ar    1  UNL1        0.0989
     46 N         142.0476  129.1464  154.1747 N.ar    1  UNL1       -0.2407
@<TRIPOS>BOND
     1    26    27    1
     2    27     7    1
     3     7     8   ar
     4     8     9   ar
     5     9    10   ar
     6    10    11   ar
     7    11    12   ar
     8    12    13   ar
     9    13    20    1
    10    20    21   ar
    11    21    22   ar
    12    22    23   ar
    13    23    24   ar
    14    24    25   ar
    15    13    14   ar
    16    14     1    1
    17     1     2   ar
    18     2     3   ar
    19     3     4   ar
    20     4    28    1
    21    28    29    1
    22    29    30    1
    23    30    31    1
    24    31    32    1
    25    32    35    1
    26    35    36   ar
    27    36    37   ar
    28    37    38   ar
    29    38    41    1
    30    41    42   ar
    31    42    43   ar
    32    43    44   ar
    33    44    45   ar
    34    45    46   ar
    35    38    39   ar
    36    32    33    1
    37    33    34    1
    38     4     5   ar
    39     5     6   ar
    40    14    15   ar
    41    15    16   ar
    42    16    17   ar
    43    17    18   ar
    44    18    19   ar
    45    19     7   ar
    46    19    10   ar
    47    16    11   ar
    48    25    20   ar
    49     6     1   ar
    50    34    29    1
    51    39    35   ar
    52    46    41   ar
    53    39    40    1
@<TRIPOS>MOLECULE
*****
 46 53 0 0 0
SMALL
GASTEIGER

@<TRIPOS>ATOM
      1 C         142.0773  139.3426  160.7187 C.ar    1  UNL1        0.0176
      2 C         140.9008  138.6020  160.1557 C.ar    1  UNL1        0.0012
      3 C         140.9261  138.1234  158.7342 C.ar    1  UNL1       -0.0029
      4 C         142.1280  138.3854  157.8760 C.ar    1  UNL1       -0.0061
      5 C         143.3046  139.1261  158.4391 C.ar    1  UNL1       -0.0029
      6 C         143.2793  139.6046  159.8605 C.ar    1  UNL1        0.0012
      7 C         142.3312  141.1084  168.8005 C.ar    1  UNL1        0.1637
      8 N         141.7352  142.4523  168.5028 N.ar    1  UNL1       -0.1317
      9 N         141.5157  142.5442  167.0218 N.ar    1  UNL1       -0.1286
     10 C         141.9760  141.2571  166.4042 C.ar    1  UNL1        0.1715
     11 C         142.0013  140.7785  164.9829 C.ar    1  UNL1        0.0540
     12 C         141.4973  141.6658  163.8835 C.ar    1  UNL1        0.0061
     13 C         141.5226  141.1872  162.4622 C.ar    1  UNL1        0.0178
     14 C         142.0520  139.8212  162.1402 C.ar    1  UNL1        0.0812
     15 N         142.5560  138.9338  163.2394 N.ar    1  UNL1       -0.2452
     16 C         142.5307  139.4124  164.6608 C.ar    1  UNL1        0.0857
     17 C         143.0347  138.5251  165.7601 C.ar    1  UNL1        0.0383
     18 C         143.0094  139.0037  167.1815 C.ar    1  UNL1        0.0842
     19 N         142.4800  140.3697  167.5035 N.ar    1  UNL1       -0.2748
     20 C         141.0186  142.0747  161.3629 C.ar    1  UNL1        0.0015
     21 C         139.5870  141.9856  160.9239 C.ar    1  UNL1        0.0000
     22 C         139.0831  142.8730  159.8247 C.ar    1  UNL1        0.0000
     23 C         140.0106  143.8496  159.1643 C.ar    1  UNL1        0.0000
     24 C         141.4422  143.9387  159.6034 C.ar    1  UNL1        0.0000
     25 C         141.9461  143.0512  160.7027 C.ar    1  UNL1        0.0000
     26 CL        141.9210  141.0040  171.3639 Cl      1  UNL1       -0.1050
     27 C         142.7116  140.5935  170.1571 C.3     1  UNL1        0.1606
     28 C         142.1534  137.9069  156.4546 C.3     1  UNL1        0.0991
     29 N         142.0902  136.4381  156.1566 N.3     1  UNL1       -0.2689
     30 C         142.9413  135.4778  156.9334 C.3     1  UNL1        0.0728
     31 C         142.8781  134.0092  156.6353 C.3     1  UNL1        0.0249
     32 C         141.9637  133.5006  155.5604 C.3     1  UNL1        0.0613
     33 C         141.1126  134.4609  154.7836 C.3     1  UNL1        0.0249
     34 C         141.1759  135.9297  155.0817 C.3     1  UNL1        0.0728
     35 C         141.9005  132.0320  155.2623 C.ar    1  UNL1        0.1396
     36 N         143.0740  131.1059  155.1391 N.ar    1  UNL1       -0.1335
     37 N         142.5515  129.7331  154.8358 N.ar    1  UNL1       -0.1277
     38 C         141.0549  129.8105  154.7715 C.ar    1  UNL1        0.1807
     39 N         140.6525  131.2313  155.0351 N.ar    1  UNL1       -0.3234
     40 H         139.7311  131.5776  155.0554 H       1  UNL1        0.1686
     41 C         140.1240  128.6679  154.4925 C.ar    1  UNL1        0.1169
     42 C         139.4847  127.9266  155.6291 C.ar    1  UNL1        0.0223
     43 C         138.5539  126.7839  155.3501 C.ar    1  UNL1        0.0032
     44 C         138.2622  126.3826  153.9345 C.ar    1  UNL1        0.0207
     45 C         138.9015  127.1239  152.7979 C.ar    1  UNL1        0.0989
     46 N         139.8324  128.2666  153.0769 N.ar    1  UNL1       -0.2407
@<TRIPOS>BOND
     1    26    27    1
     2    27     7    1
     3     7     8   ar
     4     8     9   ar
     5     9    10   ar
     6    10    11   ar
     7    11    12   ar
     8    12    13   ar
     9    13    20    1
    10    20    21   ar
    11    21    22   ar
    12    22    23   ar
    13    23    24   ar
    14    24    25   ar
    15    13    14   ar
    16    14     1    1
    17     1     2   ar
    18     2     3   ar
    19     3     4   ar
    20     4    28    1
    21    28    29    1
    22    29    30    1
    23    30    31    1
    24    31    32    1
    25    32    35    1
    26    35    36   ar
    27    36    37   ar
    28    37    38   ar
    29    38    41    1
    30    41    42   ar
    31    42    43   ar
    32    43    44   ar
    33    44    45   ar
    34    45    46   ar
    35    38    39   ar
    36    32    33    1
    37    33    34    1
    38     4     5   ar
    39     5     6   ar
    40    14    15   ar
    41    15    16   ar
    42    16    17   ar
    43    17    18   ar
    44    18    19   ar
    45    19     7   ar
    46    19    10   ar
    47    16    11   ar
    48    25    20   ar
    49     6     1   ar
    50    34    29    1
    51    39    35   ar
    52    46    41   ar
    53    39    40    1
@<TRIPOS>MOLECULE
*****
 46 53 0 0 0
SMALL
GASTEIGER

@<TRIPOS>ATOM
      1 C         141.8054  140.2414  157.2036 C.ar    1  UNL1        0.0176
      2 C         141.6841  138.9875  158.0177 C.ar    1  UNL1        0.0012
      3 C         140.4610  138.7513  158.8535 C.ar    1  UNL1       -0.0029
      4 C         139.3595  139.7691  158.8751 C.ar    1  UNL1       -0.0061
      5 C         139.4809  141.0231  158.0610 C.ar    1  UNL1       -0.0029
      6 C         140.7039  141.2592  157.2253 C.ar    1  UNL1        0.0012
      7 C         148.9358  141.9948  153.3850 C.ar    1  UNL1        0.1637
      8 N         148.4126  141.3251  152.1489 N.ar    1  UNL1       -0.1317
      9 N         147.0292  140.8253  152.4427 N.ar    1  UNL1       -0.1286
     10 C         146.6973  141.1862  153.8603 C.ar    1  UNL1        0.1715
     11 C         145.4743  140.9500  154.6961 C.ar    1  UNL1        0.0540
     12 C         144.2960  140.2272  154.1138 C.ar    1  UNL1        0.0061
     13 C         143.0730  139.9910  154.9496 C.ar    1  UNL1        0.0178
     14 C         143.0285  140.4776  156.3678 C.ar    1  UNL1        0.0812
     15 N         144.2067  141.2003  156.9501 N.ar    1  UNL1       -0.2452
     16 C         145.4297  141.4366  156.1143 C.ar    1  UNL1        0.0857
     17 C         146.6080  142.1593  156.6966 C.ar    1  UNL1        0.0383
     18 C         147.8310  142.3955  155.8608 C.ar    1  UNL1        0.0842
     19 N         147.8756  141.9089  154.4426 N.ar    1  UNL1       -0.2748
     20 C         141.8947  139.2682  154.3672 C.ar    1  UNL1        0.0015
     21 C         141.7981  137.7759  154.4830 C.ar    1  UNL1        0.0000
     22 C         140.6198  137.0532  153.9006 C.ar    1  UNL1        0.0000
     23 C         139.5380  137.8229  153.2023 C.ar    1  UNL1        0.0000
     24 C         139.6347  139.3152  153.0865 C.ar    1  UNL1        0.0000
     25 C         140.8130  140.0379  153.6690 C.ar    1  UNL1        0.0000
     26 CL        151.2375  142.1403  154.5810 Cl      1  UNL1       -0.1050
     27 C         150.2826  142.6375  153.5367 C.3     1  UNL1        0.1606
     28 C         138.1365  139.5329  159.7109 C.3     1  UNL1        0.0991
     29 N         138.2418  139.5193  161.2072 N.3     1  UNL1       -0.2689
     30 C         137.8851  140.7445  161.9955 C.3     1  UNL1        0.0728
     31 C         137.9904  140.7308  163.4916 C.3     1  UNL1        0.0249
     32 C         138.4526  139.4917  164.1996 C.3     1  UNL1        0.0613
     33 C         138.8093  138.2664  163.4113 C.3     1  UNL1        0.0249
     34 C         138.7039  138.2802  161.9151 C.3     1  UNL1        0.0728
     35 C         138.5579  139.4779  165.6958 C.ar    1  UNL1        0.1396
     36 N         137.6262  138.7762  166.6389 N.ar    1  UNL1       -0.1335
     37 N         138.1059  139.0280  168.0376 N.ar    1  UNL1       -0.1277
     38 C         139.3342  139.8855  167.9590 C.ar    1  UNL1        0.1807
     39 N         139.6135  140.1636  166.5117 N.ar    1  UNL1       -0.3234
     40 H         140.3588  140.7016  166.1592 H       1  UNL1        0.1686
     41 C         140.1414  140.3784  169.1232 C.ar    1  UNL1        0.1169
     42 C         139.6710  141.5630  169.9142 C.ar    1  UNL1        0.0223
     43 C         140.4783  142.0558  171.0785 C.ar    1  UNL1        0.0032
     44 C         141.7559  141.3642  171.4517 C.ar    1  UNL1        0.0207
     45 C         142.2262  140.1796  170.6608 C.ar    1  UNL1        0.0989
     46 N         141.4190  139.6867  169.4965 N.ar    1  UNL1       -0.2407
@<TRIPOS>BOND
     1    26    27    1
     2    27     7    1
     3     7     8   ar
     4     8     9   ar
     5     9    10   ar
     6    10    11   ar
     7    11    12   ar
     8    12    13   ar
     9    13    20    1
    10    20    21   ar
    11    21    22   ar
    12    22    23   ar
    13    23    24   ar
    14    24    25   ar
    15    13    14   ar
    16    14     1    1
    17     1     2   ar
    18     2     3   ar
    19     3     4   ar
    20     4    28    1
    21    28    29    1
    22    29    30    1
    23    30    31    1
    24    31    32    1
    25    32    35    1
    26    35    36   ar
    27    36    37   ar
    28    37    38   ar
    29    38    41    1
    30    41    42   ar
    31    42    43   ar
    32    43    44   ar
    33    44    45   ar
    34    45    46   ar
    35    38    39   ar
    36    32    33    1
    37    33    34    1
    38     4     5   ar
    39     5     6   ar
    40    14    15   ar
    41    15    16   ar
    42    16    17   ar
    43    17    18   ar
    44    18    19   ar
    45    19     7   ar
    46    19    10   ar
    47    16    11   ar
    48    25    20   ar
    49     6     1   ar
    50    34    29    1
    51    39    35   ar
    52    46    41   ar
    53    39    40    1
@<TRIPOS>MOLECULE
*****
 46 53 0 0 0
SMALL
GASTEIGER

@<TRIPOS>ATOM
      1 C         143.2207  136.8790  156.3315 C.ar    1  UNL1        0.0176
      2 C         143.9636  137.9091  155.5336 C.ar    1  UNL1        0.0012
      3 C         144.0288  139.3280  156.0159 C.ar    1  UNL1       -0.0029
      4 C         143.3509  139.7167  157.2963 C.ar    1  UNL1       -0.0061
      5 C         142.6079  138.6865  158.0943 C.ar    1  UNL1       -0.0029
      6 C         142.5428  137.2677  157.6119 C.ar    1  UNL1        0.0012
      7 C         143.6058  128.8665  154.2944 C.ar    1  UNL1        0.1637
      8 N         142.4775  129.0807  153.3294 N.ar    1  UNL1       -0.1317
      9 N         142.0784  130.5251  153.3960 N.ar    1  UNL1       -0.1286
     10 C         142.9600  131.2036  154.4021 C.ar    1  UNL1        0.1715
     11 C         143.0252  132.6225  154.8845 C.ar    1  UNL1        0.0540
     12 C         142.0812  133.6475  154.3293 C.ar    1  UNL1        0.0061
     13 C         142.1464  135.0663  154.8117 C.ar    1  UNL1        0.0178
     14 C         143.1555  135.4601  155.8492 C.ar    1  UNL1        0.0812
     15 N         144.0995  134.4352  156.4044 N.ar    1  UNL1       -0.2452
     16 C         144.0343  133.0163  155.9220 C.ar    1  UNL1        0.0857
     17 C         144.9783  131.9913  156.4772 C.ar    1  UNL1        0.0383
     18 C         144.9131  130.5724  155.9949 C.ar    1  UNL1        0.0842
     19 N         143.9040  130.1786  154.9573 N.ar    1  UNL1       -0.2748
     20 C         141.2023  136.0913  154.2564 C.ar    1  UNL1        0.0015
     21 C         139.9550  136.4480  155.0093 C.ar    1  UNL1        0.0000
     22 C         139.0110  137.4729  154.4540 C.ar    1  UNL1        0.0000
     23 C         139.3144  138.1413  153.1458 C.ar    1  UNL1        0.0000
     24 C         140.5618  137.7846  152.3929 C.ar    1  UNL1        0.0000
     25 C         141.5057  136.7596  152.9482 C.ar    1  UNL1        0.0000
     26 CL        145.7942  127.4671  154.3448 Cl      1  UNL1       -0.1050
     27 C         144.3119  127.5683  154.5512 C.3     1  UNL1        0.1606
     28 C         143.4160  141.1355  157.7786 C.3     1  UNL1        0.0991
     29 N         142.8726  141.4938  159.1301 N.3     1  UNL1       -0.2689
     30 C         143.7446  141.3746  160.3448 C.3     1  UNL1        0.0728
     31 C         143.2012  141.7329  161.6961 C.3     1  UNL1        0.0249
     32 C         141.7858  142.2104  161.8329 C.3     1  UNL1        0.0613
     33 C         140.9139  142.3297  160.6183 C.3     1  UNL1        0.0249
     34 C         141.4573  141.9714  159.2668 C.3     1  UNL1        0.0728
     35 C         141.2425  142.5687  163.1843 C.ar    1  UNL1        0.1396
     36 N         140.7104  143.9102  163.5934 N.ar    1  UNL1       -0.1335
     37 N         140.2749  143.8191  165.0258 N.ar    1  UNL1       -0.1277
     38 C         140.5377  142.4212  165.5021 C.ar    1  UNL1        0.1807
     39 N         141.1357  141.6485  164.3640 N.ar    1  UNL1       -0.3234
     40 H         141.4099  140.7032  164.3873 H       1  UNL1        0.1686
     41 C         140.2526  141.8894  166.8753 C.ar    1  UNL1        0.1169
     42 C         139.6601  140.5214  167.0419 C.ar    1  UNL1        0.0223
     43 C         139.3750  139.9897  168.4152 C.ar    1  UNL1        0.0032
     44 C         139.6824  140.8259  169.6220 C.ar    1  UNL1        0.0207
     45 C         140.2747  142.1938  169.4555 C.ar    1  UNL1        0.0989
     46 N         140.5599  142.7256  168.0821 N.ar    1  UNL1       -0.2407
@<TRIPOS>BOND
     1    26    27    1
     2    27     7    1
     3     7     8   ar
     4     8     9   ar
     5     9    10   ar
     6    10    11   ar
     7    11    12   ar
     8    12    13   ar
     9    13    20    1
    10    20    21   ar
    11    21    22   ar
    12    22    23   ar
    13    23    24   ar
    14    24    25   ar
    15    13    14   ar
    16    14     1    1
    17     1     2   ar
    18     2     3   ar
    19     3     4   ar
    20     4    28    1
    21    28    29    1
    22    29    30    1
    23    30    31    1
    24    31    32    1
    25    32    35    1
    26    35    36   ar
    27    36    37   ar
    28    37    38   ar
    29    38    41    1
    30    41    42   ar
    31    42    43   ar
    32    43    44   ar
    33    44    45   ar
    34    45    46   ar
    35    38    39   ar
    36    32    33    1
    37    33    34    1
    38     4     5   ar
    39     5     6   ar
    40    14    15   ar
    41    15    16   ar
    42    16    17   ar
    43    17    18   ar
    44    18    19   ar
    45    19     7   ar
    46    19    10   ar
    47    16    11   ar
    48    25    20   ar
    49     6     1   ar
    50    34    29    1
    51    39    35   ar
    52    46    41   ar
    53    39    40    1
@<TRIPOS>MOLECULE
*****
 46 53 0 0 0
SMALL
GASTEIGER

@<TRIPOS>ATOM
      1 C         138.9041  145.4018  155.7395 C.ar    1  UNL1        0.0176
      2 C         139.7078  144.7505  156.8256 C.ar    1  UNL1        0.0012
      3 C         139.3018  143.4077  157.3567 C.ar    1  UNL1       -0.0029
      4 C         138.0920  142.7162  156.8016 C.ar    1  UNL1       -0.0061
      5 C         137.2883  143.3675  155.7154 C.ar    1  UNL1       -0.0029
      6 C         137.6943  144.7103  155.1843 C.ar    1  UNL1        0.0012
      7 C         140.4778  153.1925  153.4315 C.ar    1  UNL1        0.1637
      8 N         141.5037  152.6758  152.4670 N.ar    1  UNL1       -0.1317
      9 N         141.5351  151.1804  152.5804 N.ar    1  UNL1       -0.1286
     10 C         140.5284  150.7729  153.6150 C.ar    1  UNL1        0.1715
     11 C         140.1223  149.4301  154.1461 C.ar    1  UNL1        0.0540
     12 C         140.7758  148.1866  153.6201 C.ar    1  UNL1        0.0061
     13 C         140.3697  146.8438  154.1512 C.ar    1  UNL1        0.0178
     14 C         139.3102  146.7446  155.2084 C.ar    1  UNL1        0.0812
     15 N         138.6568  147.9880  155.7344 N.ar    1  UNL1       -0.2452
     16 C         139.0628  149.3309  155.2033 C.ar    1  UNL1        0.0857
     17 C         138.4094  150.5743  155.7293 C.ar    1  UNL1        0.0383
     18 C         138.8155  151.9172  155.1982 C.ar    1  UNL1        0.0842
     19 N         139.8750  152.0164  154.1410 N.ar    1  UNL1       -0.2748
     20 C         141.0232  145.6003  153.6251 C.ar    1  UNL1        0.0015
     21 C         142.3337  145.1435  154.1942 C.ar    1  UNL1        0.0000
     22 C         142.9871  143.9001  153.6681 C.ar    1  UNL1        0.0000
     23 C         142.3300  143.1134  152.5729 C.ar    1  UNL1        0.0000
     24 C         141.0196  143.5703  152.0038 C.ar    1  UNL1        0.0000
     25 C         140.3661  144.8138  152.5299 C.ar    1  UNL1        0.0000
     26 CL        141.1925  155.6398  153.9311 Cl      1  UNL1       -0.1050
     27 C         140.1178  154.6324  153.6484 C.3     1  UNL1        0.1606
     28 C         137.6859  141.3734  157.3326 C.3     1  UNL1        0.0991
     29 N         138.4237  140.1413  156.8996 N.3     1  UNL1       -0.2689
     30 C         139.1893  139.3332  157.9050 C.3     1  UNL1        0.0728
     31 C         139.9271  138.1011  157.4719 C.3     1  UNL1        0.0249
     32 C         139.8993  137.6771  156.0333 C.3     1  UNL1        0.0613
     33 C         139.1337  138.4851  155.0279 C.3     1  UNL1        0.0249
     34 C         138.3960  139.7173  155.4610 C.3     1  UNL1        0.0728
     35 C         140.6371  136.4450  155.6002 C.ar    1  UNL1        0.1396
     36 N         140.5131  135.7653  154.2688 N.ar    1  UNL1       -0.1335
     37 N         141.4277  134.5765  154.2681 N.ar    1  UNL1       -0.1277
     38 C         142.1171  134.5214  155.5992 C.ar    1  UNL1        0.1807
     39 N         141.6285  135.6762  156.4224 N.ar    1  UNL1       -0.3234
     40 H         141.9091  135.8916  157.3411 H       1  UNL1        0.1686
     41 C         143.1191  133.4923  156.0312 C.ar    1  UNL1        0.1169
     42 C         143.4095  132.3124  155.1515 C.ar    1  UNL1        0.0223
     43 C         144.4116  131.2833  155.5836 C.ar    1  UNL1        0.0032
     44 C         145.1234  131.4339  156.8954 C.ar    1  UNL1        0.0207
     45 C         144.8331  132.6137  157.7750 C.ar    1  UNL1        0.0989
     46 N         143.8310  133.6429  157.3430 N.ar    1  UNL1       -0.2407
@<TRIPOS>BOND
     1    26    27    1
     2    27     7    1
     3     7     8   ar
     4     8     9   ar
     5     9    10   ar
     6    10    11   ar
     7    11    12   ar
     8    12    13   ar
     9    13    20    1
    10    20    21   ar
    11    21    22   ar
    12    22    23   ar
    13    23    24   ar
    14    24    25   ar
    15    13    14   ar
    16    14     1    1
    17     1     2   ar
    18     2     3   ar
    19     3     4   ar
    20     4    28    1
    21    28    29    1
    22    29    30    1
    23    30    31    1
    24    31    32    1
    25    32    35    1
    26    35    36   ar
    27    36    37   ar
    28    37    38   ar
    29    38    41    1
    30    41    42   ar
    31    42    43   ar
    32    43    44   ar
    33    44    45   ar
    34    45    46   ar
    35    38    39   ar
    36    32    33    1
    37    33    34    1
    38     4     5   ar
    39     5     6   ar
    40    14    15   ar
    41    15    16   ar
    42    16    17   ar
    43    17    18   ar
    44    18    19   ar
    45    19     7   ar
    46    19    10   ar
    47    16    11   ar
    48    25    20   ar
    49     6     1   ar
    50    34    29    1
    51    39    35   ar
    52    46    41   ar
    53    39    40    1
@<TRIPOS>MOLECULE
*****
 46 53 0 0 0
SMALL
GASTEIGER

@<TRIPOS>ATOM
      1 C         140.8437  138.4716  156.9934 C.ar    1  UNL1        0.0176
      2 C         141.5932  139.7181  156.6272 C.ar    1  UNL1        0.0012
      3 C         141.1526  141.0452  157.1704 C.ar    1  UNL1       -0.0029
      4 C         139.9625  141.1254  158.0799 C.ar    1  UNL1       -0.0061
      5 C         139.2130  139.8787  158.4461 C.ar    1  UNL1       -0.0029
      6 C         139.6536  138.5518  157.9029 C.ar    1  UNL1        0.0012
      7 C         143.8565  131.0837  154.7930 C.ar    1  UNL1        0.1637
      8 N         142.9970  131.1242  153.5643 N.ar    1  UNL1       -0.1317
      9 N         142.2242  132.4097  153.5813 N.ar    1  UNL1       -0.1286
     10 C         142.6060  133.1637  154.8205 C.ar    1  UNL1        0.1715
     11 C         142.1655  134.4907  155.3637 C.ar    1  UNL1        0.0540
     12 C         141.1567  135.3102  154.6148 C.ar    1  UNL1        0.0061
     13 C         140.7161  136.6371  155.1581 C.ar    1  UNL1        0.0178
     14 C         141.2844  137.1446  156.4502 C.ar    1  UNL1        0.0812
     15 N         142.2931  136.3251  157.1991 N.ar    1  UNL1       -0.2452
     16 C         142.7337  134.9981  156.6558 C.ar    1  UNL1        0.0857
     17 C         143.7424  134.1787  157.4047 C.ar    1  UNL1        0.0383
     18 C         144.1830  132.8517  156.8615 C.ar    1  UNL1        0.0842
     19 N         143.6148  132.3443  155.5694 N.ar    1  UNL1       -0.2748
     20 C         139.7073  137.4565  154.4091 C.ar    1  UNL1        0.0015
     21 C         140.1613  138.4406  153.3720 C.ar    1  UNL1        0.0000
     22 C         139.1525  139.2599  152.6232 C.ar    1  UNL1        0.0000
     23 C         137.6896  139.0953  152.9113 C.ar    1  UNL1        0.0000
     24 C         137.2357  138.1113  153.9484 C.ar    1  UNL1        0.0000
     25 C         138.2445  137.2919  154.6973 C.ar    1  UNL1        0.0000
     26 CL        144.6045  129.2529  156.4778 Cl      1  UNL1       -0.1050
     27 C         144.7931  129.9771  155.1778 C.3     1  UNL1        0.1606
     28 C         139.5218  142.4523  158.6231 C.3     1  UNL1        0.0991
     29 N         139.5852  143.6756  157.7572 N.3     1  UNL1       -0.2689
     30 C         138.8748  143.6972  156.4363 C.3     1  UNL1        0.0728
     31 C         138.9382  144.9204  155.5706 C.3     1  UNL1        0.0249
     32 C         139.7120  146.1222  156.0257 C.3     1  UNL1        0.0613
     33 C         140.4224  146.1006  157.3466 C.3     1  UNL1        0.0249
     34 C         140.3590  144.8773  158.2124 C.3     1  UNL1        0.0728
     35 C         139.7754  147.3454  155.1599 C.ar    1  UNL1        0.1396
     36 N         140.4204  147.4369  153.8088 N.ar    1  UNL1       -0.1335
     37 N         140.2486  148.8400  153.3071 N.ar    1  UNL1       -0.1277
     38 C         139.4973  149.6157  154.3481 C.ar    1  UNL1        0.1807
     39 N         139.2049  148.6921  155.4932 N.ar    1  UNL1       -0.3234
     40 H         138.7231  148.9282  156.3187 H       1  UNL1        0.1686
     41 C         139.1070  151.0613  154.2596 C.ar    1  UNL1        0.1169
     42 C         138.7808  151.8279  155.5071 C.ar    1  UNL1        0.0223
     43 C         138.3905  153.2735  155.4185 C.ar    1  UNL1        0.0032
     44 C         138.3264  153.9526  154.0826 C.ar    1  UNL1        0.0207
     45 C         138.6527  153.1861  152.8352 C.ar    1  UNL1        0.0989
     46 N         139.0430  151.7404  152.9237 N.ar    1  UNL1       -0.2407
@<TRIPOS>BOND
     1    26    27    1
     2    27     7    1
     3     7     8   ar
     4     8     9   ar
     5     9    10   ar
     6    10    11   ar
     7    11    12   ar
     8    12    13   ar
     9    13    20    1
    10    20    21   ar
    11    21    22   ar
    12    22    23   ar
    13    23    24   ar
    14    24    25   ar
    15    13    14   ar
    16    14     1    1
    17     1     2   ar
    18     2     3   ar
    19     3     4   ar
    20     4    28    1
    21    28    29    1
    22    29    30    1
    23    30    31    1
    24    31    32    1
    25    32    35    1
    26    35    36   ar
    27    36    37   ar
    28    37    38   ar
    29    38    41    1
    30    41    42   ar
    31    42    43   ar
    32    43    44   ar
    33    44    45   ar
    34    45    46   ar
    35    38    39   ar
    36    32    33    1
    37    33    34    1
    38     4     5   ar
    39     5     6   ar
    40    14    15   ar
    41    15    16   ar
    42    16    17   ar
    43    17    18   ar
    44    18    19   ar
    45    19     7   ar
    46    19    10   ar
    47    16    11   ar
    48    25    20   ar
    49     6     1   ar
    50    34    29    1
    51    39    35   ar
    52    46    41   ar
    53    39    40    1
@<TRIPOS>MOLECULE
*****
 46 53 0 0 0
SMALL
GASTEIGER

@<TRIPOS>ATOM
      1 C         139.2407  143.7500  156.8679 C.ar    1  UNL1        0.0176
      2 C         140.1896  143.2972  157.9376 C.ar    1  UNL1        0.0012
      3 C         139.9490  142.0016  158.6543 C.ar    1  UNL1       -0.0029
      4 C         138.7593  141.1589  158.3012 C.ar    1  UNL1       -0.0061
      5 C         137.8104  141.6119  157.2314 C.ar    1  UNL1       -0.0029
      6 C         138.0511  142.9074  156.5148 C.ar    1  UNL1        0.0012
      7 C         139.9934  151.3168  153.6005 C.ar    1  UNL1        0.1637
      8 N         140.8735  150.7426  152.5301 N.ar    1  UNL1       -0.1317
      9 N         141.0033  149.2689  152.7777 N.ar    1  UNL1       -0.1286
     10 C         140.2034  148.9322  154.0011 C.ar    1  UNL1        0.1715
     11 C         139.9628  147.6367  154.7178 C.ar    1  UNL1        0.0540
     12 C         140.5869  146.3710  154.2093 C.ar    1  UNL1        0.0061
     13 C         140.3462  145.0755  154.9260 C.ar    1  UNL1        0.0178
     14 C         139.4814  145.0457  156.1512 C.ar    1  UNL1        0.0812
     15 N         138.8573  146.3112  156.6597 N.ar    1  UNL1       -0.2452
     16 C         139.0979  147.6068  155.9430 C.ar    1  UNL1        0.0857
     17 C         138.4738  148.8724  156.4515 C.ar    1  UNL1        0.0383
     18 C         138.7145  150.1680  155.7348 C.ar    1  UNL1        0.0842
     19 N         139.5793  150.1979  154.5096 N.ar    1  UNL1       -0.2748
     20 C         140.9704  143.8099  154.4174 C.ar    1  UNL1        0.0015
     21 C         142.3302  143.3982  154.8985 C.ar    1  UNL1        0.0000
     22 C         142.9543  142.1327  154.3899 C.ar    1  UNL1        0.0000
     23 C         142.2186  141.2786  153.4002 C.ar    1  UNL1        0.0000
     24 C         140.8588  141.6903  152.9191 C.ar    1  UNL1        0.0000
     25 C         140.2347  142.9559  153.4277 C.ar    1  UNL1        0.0000
     26 CL        138.1481  153.1430  153.6995 Cl      1  UNL1       -0.1050
     27 C         139.5971  152.7569  153.7376 C.3     1  UNL1        0.1606
     28 C         138.5186  139.8634  159.0178 C.3     1  UNL1        0.0991
     29 N         138.5882  139.8105  160.5153 N.3     1  UNL1       -0.2689
     30 C         139.5152  138.8429  161.1894 C.3     1  UNL1        0.0728
     31 C         139.5847  138.7900  162.6868 C.3     1  UNL1        0.0249
     32 C         138.7273  139.7048  163.5102 C.3     1  UNL1        0.0613
     33 C         137.8003  140.6724  162.8361 C.3     1  UNL1        0.0249
     34 C         137.7308  140.7253  161.3387 C.3     1  UNL1        0.0728
     35 C         138.7968  139.6520  165.0076 C.ar    1  UNL1        0.1396
     36 N         138.0584  138.6908  165.8912 N.ar    1  UNL1       -0.1335
     37 N         138.4222  138.9958  167.3141 N.ar    1  UNL1       -0.1277
     38 C         139.3855  140.1456  167.3099 C.ar    1  UNL1        0.1807
     39 N         139.6170  140.5511  165.8845 N.ar    1  UNL1       -0.3234
     40 H         140.2042  141.2795  165.5782 H       1  UNL1        0.1686
     41 C         140.0080  140.7786  168.5189 C.ar    1  UNL1        0.1169
     42 C         140.5038  142.1929  168.4537 C.ar    1  UNL1        0.0223
     43 C         141.1263  142.8259  169.6627 C.ar    1  UNL1        0.0032
     44 C         141.2530  142.0448  170.9370 C.ar    1  UNL1        0.0207
     45 C         140.7572  140.6306  171.0022 C.ar    1  UNL1        0.0989
     46 N         140.1347  139.9975  169.7932 N.ar    1  UNL1       -0.2407
@<TRIPOS>BOND
     1    26    27    1
     2    27     7    1
     3     7     8   ar
     4     8     9   ar
     5     9    10   ar
     6    10    11   ar
     7    11    12   ar
     8    12    13   ar
     9    13    20    1
    10    20    21   ar
    11    21    22   ar
    12    22    23   ar
    13    23    24   ar
    14    24    25   ar
    15    13    14   ar
    16    14     1    1
    17     1     2   ar
    18     2     3   ar
    19     3     4   ar
    20     4    28    1
    21    28    29    1
    22    29    30    1
    23    30    31    1
    24    31    32    1
    25    32    35    1
    26    35    36   ar
    27    36    37   ar
    28    37    38   ar
    29    38    41    1
    30    41    42   ar
    31    42    43   ar
    32    43    44   ar
    33    44    45   ar
    34    45    46   ar
    35    38    39   ar
    36    32    33    1
    37    33    34    1
    38     4     5   ar
    39     5     6   ar
    40    14    15   ar
    41    15    16   ar
    42    16    17   ar
    43    17    18   ar
    44    18    19   ar
    45    19     7   ar
    46    19    10   ar
    47    16    11   ar
    48    25    20   ar
    49     6     1   ar
    50    34    29    1
    51    39    35   ar
    52    46    41   ar
    53    39    40    1
@<TRIPOS>MOLECULE
*****
 46 53 0 0 0
SMALL
GASTEIGER

@<TRIPOS>ATOM
      1 C         140.2106  143.8661  159.6903 C.ar    1  UNL1        0.0176
      2 C         140.7635  145.1396  159.1228 C.ar    1  UNL1        0.0012
      3 C         140.4431  145.5330  157.7111 C.ar    1  UNL1       -0.0029
      4 C         139.5697  144.6527  156.8671 C.ar    1  UNL1       -0.0061
      5 C         139.0168  143.3791  157.4348 C.ar    1  UNL1       -0.0029
      6 C         139.3372  142.9858  158.8464 C.ar    1  UNL1        0.0012
      7 C         141.2029  142.2478  167.7461 C.ar    1  UNL1        0.1637
      8 N         142.3893  141.3953  167.4058 N.ar    1  UNL1       -0.1317
      9 N         142.5681  141.4229  165.9167 N.ar    1  UNL1       -0.1286
     10 C         141.4922  142.2924  165.3367 C.ar    1  UNL1        0.1715
     11 C         141.1718  142.6858  163.9251 C.ar    1  UNL1        0.0540
     12 C         142.0155  142.1760  162.7945 C.ar    1  UNL1        0.0061
     13 C         141.6951  142.5694  161.3830 C.ar    1  UNL1        0.0178
     14 C         140.5309  143.4727  161.1020 C.ar    1  UNL1        0.0812
     15 N         139.6873  143.9824  162.2325 N.ar    1  UNL1       -0.2452
     16 C         140.0076  143.5890  163.6442 C.ar    1  UNL1        0.0857
     17 C         139.1640  144.0988  164.7747 C.ar    1  UNL1        0.0383
     18 C         139.4844  143.7054  166.1863 C.ar    1  UNL1        0.0842
     19 N         140.6485  142.8022  166.4673 N.ar    1  UNL1       -0.2748
     20 C         142.5389  142.0596  160.2524 C.ar    1  UNL1        0.0015
     21 C         143.6924  142.8762  159.7498 C.ar    1  UNL1        0.0000
     22 C         144.5361  142.3663  158.6194 C.ar    1  UNL1        0.0000
     23 C         144.2263  141.0397  157.9913 C.ar    1  UNL1        0.0000
     24 C         143.0728  140.2231  158.4939 C.ar    1  UNL1        0.0000
     25 C         142.2291  140.7331  159.6244 C.ar    1  UNL1        0.0000
     26 CL        140.4539  143.9082  169.5986 Cl      1  UNL1       -0.1050
     27 C         140.6653  142.5013  169.1233 C.3     1  UNL1        0.1606
     28 C         139.2493  145.0460  155.4555 C.3     1  UNL1        0.0991
     29 N         139.5498  146.4358  154.9777 N.3     1  UNL1       -0.2689
     30 C         140.5850  146.6560  153.9147 C.3     1  UNL1        0.0728
     31 C         140.8855  148.0457  153.4369 C.3     1  UNL1        0.0249
     32 C         140.1507  149.2153  154.0220 C.3     1  UNL1        0.0613
     33 C         139.1155  148.9951  155.0850 C.3     1  UNL1        0.0249
     34 C         138.8151  147.6053  155.5628 C.3     1  UNL1        0.0728
     35 C         140.4512  150.6050  153.5442 C.ar    1  UNL1        0.1396
     36 N         139.7332  151.3350  152.4481 N.ar    1  UNL1       -0.1335
     37 N         140.3606  152.6899  152.3050 N.ar    1  UNL1       -0.1277
     38 C         141.4665  152.7974  153.3128 C.ar    1  UNL1        0.1807
     39 N         141.5224  151.5088  154.0787 N.ar    1  UNL1       -0.3234
     40 H         142.1518  151.2940  154.8046 H       1  UNL1        0.1686
     41 C         142.3595  153.9848  153.5186 C.ar    1  UNL1        0.1169
     42 C         143.7677  153.9627  153.0022 C.ar    1  UNL1        0.0223
     43 C         144.6607  155.1502  153.2081 C.ar    1  UNL1        0.0032
     44 C         144.1456  156.3598  153.9303 C.ar    1  UNL1        0.0207
     45 C         142.7375  156.3819  154.4467 C.ar    1  UNL1        0.0989
     46 N         141.8444  155.1943  154.2408 N.ar    1  UNL1       -0.2407
@<TRIPOS>BOND
     1    26    27    1
     2    27     7    1
     3     7     8   ar
     4     8     9   ar
     5     9    10   ar
     6    10    11   ar
     7    11    12   ar
     8    12    13   ar
     9    13    20    1
    10    20    21   ar
    11    21    22   ar
    12    22    23   ar
    13    23    24   ar
    14    24    25   ar
    15    13    14   ar
    16    14     1    1
    17     1     2   ar
    18     2     3   ar
    19     3     4   ar
    20     4    28    1
    21    28    29    1
    22    29    30    1
    23    30    31    1
    24    31    32    1
    25    32    35    1
    26    35    36   ar
    27    36    37   ar
    28    37    38   ar
    29    38    41    1
    30    41    42   ar
    31    42    43   ar
    32    43    44   ar
    33    44    45   ar
    34    45    46   ar
    35    38    39   ar
    36    32    33    1
    37    33    34    1
    38     4     5   ar
    39     5     6   ar
    40    14    15   ar
    41    15    16   ar
    42    16    17   ar
    43    17    18   ar
    44    18    19   ar
    45    19     7   ar
    46    19    10   ar
    47    16    11   ar
    48    25    20   ar
    49     6     1   ar
    50    34    29    1
    51    39    35   ar
    52    46    41   ar
    53    39    40    1
