@<TRIPOS>MOLECULE
*****
 37 40 0 0 0
SMALL
GASTEIGER

@<TRIPOS>ATOM
      1 N         140.0162  137.2653  157.1440 N.am    1  UNL1       -0.2756
      2 C         141.0510  138.2312  157.6401 C.2     1  UNL1        0.2691
      3 O         141.9568  138.9254  156.6665 O.2     1  UNL1       -0.2681
      4 H         139.4217  136.8097  157.7830 H       1  UNL1        0.1553
      5 C         141.1801  138.5030  159.1095 C.ar    1  UNL1        0.1543
      6 N         140.0799  138.4048  160.1244 N.ar    1  UNL1       -0.2323
      7 C         140.6519  138.7619  161.4642 C.ar    1  UNL1        0.1164
      8 S         142.1056  139.0808  161.2775 S.2     1  UNL1       -0.0520
      9 C         142.4321  138.9209  159.8223 C.ar    1  UNL1        0.0957
     10 N         143.7748  139.1402  159.1906 N.pl3   1  UNL1       -0.3508
     11 H         144.5406  139.4152  159.7449 H       1  UNL1        0.1429
     12 H         143.8904  139.0092  158.2217 H       1  UNL1        0.1429
     13 C         139.9018  138.7943  162.7629 C.ar    1  UNL1        0.0787
     14 C         140.0811  137.6885  163.7603 C.ar    1  UNL1        0.1442
     15 F         141.0106  136.5502  163.4592 F       1  UNL1       -0.2040
     16 C         139.3311  137.7208  165.0589 C.ar    1  UNL1        0.0299
     17 C         138.4016  138.8591  165.3599 C.ar    1  UNL1        0.0046
     18 C         138.2222  139.9648  164.3625 C.ar    1  UNL1        0.0299
     19 C         138.9724  139.9324  163.0639 C.ar    1  UNL1        0.1442
     20 F         138.7930  141.0382  162.0664 F       1  UNL1       -0.2040
     21 C         140.6152  135.0989  152.3661 C.3     1  UNL1        0.1552
     22 N         140.1624  135.9977  153.4783 N.ar    1  UNL1       -0.2344
     23 N         139.2143  137.1528  153.3481 N.ar    1  UNL1       -0.1652
     24 C         139.0441  137.7682  154.7054 C.ar    1  UNL1        0.1376
     25 C         139.8871  136.9934  155.6746 C.ar    1  UNL1        0.1034
     26 C         140.5782  135.8993  154.9162 C.ar    1  UNL1        0.1438
     27 N         141.5198  134.8848  155.4943 N.pl3   1  UNL1       -0.2923
     28 C         142.7102  135.4402  156.2185 C.3     1  UNL1        0.0937
     29 C         143.8214  134.6970  156.8991 C.3     1  UNL1        0.0397
     30 C         144.0165  133.2150  157.0235 C.3     1  UNL1        0.0856
     31 N         145.2414  132.7805  157.7723 N.3     1  UNL1       -0.3200
     32 C         143.1487  132.1100  156.4981 C.3     1  UNL1        0.1767
     33 F         143.6205  130.7167  156.7910 F       1  UNL1       -0.2358
     34 C         141.8714  132.2143  155.7185 C.3     1  UNL1        0.0581
     35 C         141.1465  133.4492  155.2718 C.3     1  UNL1        0.0950
     36 H         145.2797  131.7615  157.7994 H       1  UNL1        0.1189
     37 H         145.2050  133.1447  158.7243 H       1  UNL1        0.1189
@<TRIPOS>BOND
     1    21    22    1
     2    22    23   ar
     3    23    24   ar
     4    24    25   ar
     5    25     1    1
     6     1     2   am
     7     2     3    2
     8     2     5    1
     9     5     6   ar
    10     6     7   ar
    11     7    13    1
    12    13    14   ar
    13    14    15    1
    14    14    16   ar
    15    16    17   ar
    16    17    18   ar
    17    18    19   ar
    18    19    20    1
    19     7     8   ar
    20     8     9   ar
    21     9    10    1
    22    25    26   ar
    23    26    27    1
    24    27    28    1
    25    28    29    1
    26    29    30    1
    27    30    31    1
    28    30    32    1
    29    32    33    1
    30    32    34    1
    31    34    35    1
    32    26    22   ar
    33    35    27    1
    34     9     5   ar
    35    19    13   ar
    36     1     4    1
    37    10    11    1
    38    10    12    1
    39    31    36    1
    40    31    37    1
@<TRIPOS>MOLECULE
*****
 37 40 0 0 0
SMALL
GASTEIGER

@<TRIPOS>ATOM
      1 N         139.5829  136.9988  156.4820 N.am    1  UNL1       -0.2756
      2 C         140.2655  138.1938  157.0786 C.2     1  UNL1        0.2691
      3 O         141.1785  139.0344  156.2358 O.2     1  UNL1       -0.2681
      4 H         138.9837  136.4472  157.0350 H       1  UNL1        0.1553
      5 C         140.0354  138.5483  158.5177 C.ar    1  UNL1        0.1543
      6 N         140.8499  138.0728  159.6841 N.ar    1  UNL1       -0.2323
      7 C         140.2683  138.6711  160.9305 C.ar    1  UNL1        0.1164
      8 S         139.0942  139.5164  160.5345 S.2     1  UNL1       -0.0520
      9 C         138.9502  139.4406  159.0434 C.ar    1  UNL1        0.0957
     10 N         137.9046  140.1350  158.2221 N.pl3   1  UNL1       -0.3508
     11 H         137.2309  140.7030  158.6610 H       1  UNL1        0.1429
     12 H         137.8922  140.0228  157.2440 H       1  UNL1        0.1429
     13 C         140.7723  138.4610  162.3276 C.ar    1  UNL1        0.0787
     14 C         139.9238  137.7361  163.3298 C.ar    1  UNL1        0.1442
     15 F         138.5712  137.2214  162.9350 F       1  UNL1       -0.2040
     16 C         140.4277  137.5259  164.7270 C.ar    1  UNL1        0.0299
     17 C         141.7802  138.0407  165.1217 C.ar    1  UNL1        0.0046
     18 C         142.6287  138.7655  164.1195 C.ar    1  UNL1        0.0299
     19 C         142.1247  138.9757  162.7223 C.ar    1  UNL1        0.1442
     20 F         142.9732  139.7005  161.7201 F       1  UNL1       -0.2040
     21 C         141.4443  134.6861  152.1154 C.3     1  UNL1        0.1552
     22 N         140.6686  135.5813  153.0356 N.ar    1  UNL1       -0.2344
     23 N         139.6656  136.6165  152.6204 N.ar    1  UNL1       -0.1652
     24 C         139.1368  137.2735  153.8608 C.ar    1  UNL1        0.1376
     25 C         139.8130  136.6443  155.0428 C.ar    1  UNL1        0.1034
     26 C         140.7597  135.5986  154.5328 C.ar    1  UNL1        0.1438
     27 N         141.6424  134.7236  155.3726 N.pl3   1  UNL1       -0.2923
     28 C         141.3343  133.2562  155.3299 C.3     1  UNL1        0.0937
     29 C         142.0243  132.1344  156.0482 C.3     1  UNL1        0.0397
     30 C         143.1925  132.2031  156.9863 C.3     1  UNL1        0.0856
     31 N         143.6550  130.8909  157.5469 N.3     1  UNL1       -0.3200
     32 C         143.9595  133.4104  157.4381 C.3     1  UNL1        0.1767
     33 F         145.0876  133.1459  158.3907 F       1  UNL1       -0.2358
     34 C         143.7476  134.8473  157.0632 C.3     1  UNL1        0.0581
     35 C         142.7164  135.4316  156.1439 C.3     1  UNL1        0.0950
     36 H         144.4484  131.0475  158.1686 H       1  UNL1        0.1189
     37 H         143.9372  130.2757  156.7839 H       1  UNL1        0.1189
@<TRIPOS>BOND
     1    21    22    1
     2    22    23   ar
     3    23    24   ar
     4    24    25   ar
     5    25     1    1
     6     1     2   am
     7     2     3    2
     8     2     5    1
     9     5     6   ar
    10     6     7   ar
    11     7    13    1
    12    13    14   ar
    13    14    15    1
    14    14    16   ar
    15    16    17   ar
    16    17    18   ar
    17    18    19   ar
    18    19    20    1
    19     7     8   ar
    20     8     9   ar
    21     9    10    1
    22    25    26   ar
    23    26    27    1
    24    27    28    1
    25    28    29    1
    26    29    30    1
    27    30    31    1
    28    30    32    1
    29    32    33    1
    30    32    34    1
    31    34    35    1
    32    26    22   ar
    33    35    27    1
    34     9     5   ar
    35    19    13   ar
    36     1     4    1
    37    10    11    1
    38    10    12    1
    39    31    36    1
    40    31    37    1
@<TRIPOS>MOLECULE
*****
 37 40 0 0 0
SMALL
GASTEIGER

@<TRIPOS>ATOM
      1 N         140.3357  143.7634  163.2918 N.am    1  UNL1       -0.2756
      2 C         139.1994  142.9117  163.7750 C.2     1  UNL1        0.2691
      3 O         137.8777  142.9526  163.0669 O.2     1  UNL1       -0.2681
      4 H         141.2032  143.7366  163.7566 H       1  UNL1        0.1553
      5 C         139.3848  142.0192  164.9662 C.ar    1  UNL1        0.1543
      6 N         140.2631  142.2991  166.1495 N.ar    1  UNL1       -0.2323
      7 C         140.1455  141.1430  167.0979 C.ar    1  UNL1        0.1164
      8 S         139.1945  140.1486  166.5008 S.2     1  UNL1       -0.0520
      9 C         138.7244  140.6900  165.1834 C.ar    1  UNL1        0.0957
     10 N         137.7626  140.0200  164.2473 N.pl3   1  UNL1       -0.3508
     11 H         137.3801  139.1429  164.4793 H       1  UNL1        0.1429
     12 H         137.5138  140.4572  163.4011 H       1  UNL1        0.1429
     13 C         140.8545  141.0055  168.4127 C.ar    1  UNL1        0.0787
     14 C         140.0713  140.7295  169.6618 C.ar    1  UNL1        0.1442
     15 F         138.5791  140.5909  169.5962 F       1  UNL1       -0.2040
     16 C         140.7802  140.5920  170.9766 C.ar    1  UNL1        0.0299
     17 C         142.2724  140.7306  171.0421 C.ar    1  UNL1        0.0046
     18 C         143.0556  141.0067  169.7930 C.ar    1  UNL1        0.0299
     19 C         142.3466  141.1441  168.4782 C.ar    1  UNL1        0.1442
     20 F         143.1298  141.4201  167.2291 F       1  UNL1       -0.2040
     21 C         140.2945  145.5754  158.3325 C.3     1  UNL1        0.1552
     22 N         140.1314  145.4889  159.8211 N.ar    1  UNL1       -0.2344
     23 N         139.5988  146.5700  160.7141 N.ar    1  UNL1       -0.1652
     24 C         139.6105  146.0553  162.1229 C.ar    1  UNL1        0.1376
     25 C         140.1504  144.6559  162.1006 C.ar    1  UNL1        0.1034
     26 C         140.4722  144.3059  160.6780 C.ar    1  UNL1        0.1438
     27 N         141.0360  143.0018  160.1969 N.pl3   1  UNL1       -0.2923
     28 C         142.5163  142.9825  159.9548 C.3     1  UNL1        0.0937
     29 C         143.3712  141.8461  159.4775 C.3     1  UNL1        0.0397
     30 C         142.9569  140.4484  159.1245 C.3     1  UNL1        0.0856
     31 N         144.0600  139.5366  158.6749 N.3     1  UNL1       -0.3200
     32 C         141.5856  139.8417  159.1614 C.3     1  UNL1        0.1767
     33 F         141.4986  138.4037  158.7440 F       1  UNL1       -0.2358
     34 C         140.2897  140.4831  159.5607 C.3     1  UNL1        0.0581
     35 C         140.0452  141.8895  160.0215 C.3     1  UNL1        0.0950
     36 H         143.6747  138.6168  158.4606 H       1  UNL1        0.1189
     37 H         144.7535  139.4500  159.4178 H       1  UNL1        0.1189
@<TRIPOS>BOND
     1    21    22    1
     2    22    23   ar
     3    23    24   ar
     4    24    25   ar
     5    25     1    1
     6     1     2   am
     7     2     3    2
     8     2     5    1
     9     5     6   ar
    10     6     7   ar
    11     7    13    1
    12    13    14   ar
    13    14    15    1
    14    14    16   ar
    15    16    17   ar
    16    17    18   ar
    17    18    19   ar
    18    19    20    1
    19     7     8   ar
    20     8     9   ar
    21     9    10    1
    22    25    26   ar
    23    26    27    1
    24    27    28    1
    25    28    29    1
    26    29    30    1
    27    30    31    1
    28    30    32    1
    29    32    33    1
    30    32    34    1
    31    34    35    1
    32    26    22   ar
    33    35    27    1
    34     9     5   ar
    35    19    13   ar
    36     1     4    1
    37    10    11    1
    38    10    12    1
    39    31    36    1
    40    31    37    1
@<TRIPOS>MOLECULE
*****
 37 40 0 0 0
SMALL
GASTEIGER

@<TRIPOS>ATOM
      1 N         143.7391  139.8795  158.2411 N.am    1  UNL1       -0.2756
      2 C         142.6924  139.1283  157.4730 C.2     1  UNL1        0.2691
      3 O         141.2979  139.6726  157.3766 O.2     1  UNL1       -0.2681
      4 H         144.6544  139.5224  158.3044 H       1  UNL1        0.1553
      5 C         143.0401  137.8331  156.8012 C.ar    1  UNL1        0.1543
      6 N         142.3510  136.5176  157.0124 N.ar    1  UNL1       -0.2323
      7 C         143.0228  135.4973  156.1421 C.ar    1  UNL1        0.1164
      8 S         144.1272  136.1822  155.3930 S.2     1  UNL1       -0.0520
      9 C         144.1379  137.6257  155.8004 C.ar    1  UNL1        0.0957
     10 N         145.0809  138.6774  155.2955 N.pl3   1  UNL1       -0.3508
     11 H         145.7723  138.4426  154.6351 H       1  UNL1        0.1429
     12 H         145.0084  139.6025  155.6245 H       1  UNL1        0.1429
     13 C         142.6549  134.0467  156.0390 C.ar    1  UNL1        0.0787
     14 C         143.3527  133.0332  156.8968 C.ar    1  UNL1        0.1442
     15 F         144.4184  133.4702  157.8577 F       1  UNL1       -0.2040
     16 C         142.9848  131.5827  156.7937 C.ar    1  UNL1        0.0299
     17 C         141.9190  131.1458  155.8328 C.ar    1  UNL1        0.0046
     18 C         141.2212  132.1592  154.9750 C.ar    1  UNL1        0.0299
     19 C         141.5892  133.6098  155.0781 C.ar    1  UNL1        0.1442
     20 F         140.8914  134.6233  154.2204 F       1  UNL1       -0.2040
     21 C         141.7101  143.4034  161.6095 C.3     1  UNL1        0.1552
     22 N         142.4589  142.7947  160.4611 N.ar    1  UNL1       -0.2344
     23 N         143.2542  143.5418  159.4319 N.ar    1  UNL1       -0.1652
     24 C         143.8306  142.5407  158.4750 C.ar    1  UNL1        0.1376
     25 C         143.3915  141.1748  158.9129 C.ar    1  UNL1        0.1034
     26 C         142.5437  141.3318  160.1403 C.ar    1  UNL1        0.1438
     27 N         141.8948  140.2209  160.9115 N.pl3   1  UNL1       -0.2923
     28 C         142.8255  139.3403  161.6917 C.3     1  UNL1        0.0937
     29 C         142.4922  138.1587  162.5537 C.3     1  UNL1        0.0397
     30 C         141.1462  137.5660  162.8483 C.3     1  UNL1        0.0856
     31 N         141.1453  136.3731  163.7577 N.3     1  UNL1       -0.3200
     32 C         139.8009  138.0084  162.3538 C.3     1  UNL1        0.1767
     33 F         138.6327  137.1994  162.8342 F       1  UNL1       -0.2358
     34 C         139.4694  139.1528  161.4426 C.3     1  UNL1        0.0581
     35 C         140.4014  140.1374  160.8007 C.3     1  UNL1        0.0950
     36 H         140.1876  136.0493  163.8928 H       1  UNL1        0.1189
     37 H         141.5468  136.6323  164.6588 H       1  UNL1        0.1189
@<TRIPOS>BOND
     1    21    22    1
     2    22    23   ar
     3    23    24   ar
     4    24    25   ar
     5    25     1    1
     6     1     2   am
     7     2     3    2
     8     2     5    1
     9     5     6   ar
    10     6     7   ar
    11     7    13    1
    12    13    14   ar
    13    14    15    1
    14    14    16   ar
    15    16    17   ar
    16    17    18   ar
    17    18    19   ar
    18    19    20    1
    19     7     8   ar
    20     8     9   ar
    21     9    10    1
    22    25    26   ar
    23    26    27    1
    24    27    28    1
    25    28    29    1
    26    29    30    1
    27    30    31    1
    28    30    32    1
    29    32    33    1
    30    32    34    1
    31    34    35    1
    32    26    22   ar
    33    35    27    1
    34     9     5   ar
    35    19    13   ar
    36     1     4    1
    37    10    11    1
    38    10    12    1
    39    31    36    1
    40    31    37    1
@<TRIPOS>MOLECULE
*****
 37 40 0 0 0
SMALL
GASTEIGER

@<TRIPOS>ATOM
      1 N         142.1196  144.5315  158.0392 N.am    1  UNL1       -0.2756
      2 C         141.0310  144.0703  157.1160 C.2     1  UNL1        0.2691
      3 O         140.8019  142.6036  156.9003 O.2     1  UNL1       -0.2681
      4 H         142.2699  145.4940  158.1808 H       1  UNL1        0.1553
      5 C         140.1715  145.0756  156.4086 C.ar    1  UNL1        0.1543
      6 N         140.4782  146.5341  156.2390 N.ar    1  UNL1       -0.2323
      7 C         139.3507  147.1588  155.4721 C.ar    1  UNL1        0.1164
      8 S         138.3471  146.0865  155.1677 S.2     1  UNL1       -0.0520
      9 C         138.8543  144.7990  155.7464 C.ar    1  UNL1        0.0957
     10 N         138.1653  143.4684  155.6754 N.pl3   1  UNL1       -0.3508
     11 H         137.2983  143.3869  155.2162 H       1  UNL1        0.1429
     12 H         138.5802  142.6767  156.0880 H       1  UNL1        0.1429
     13 C         139.2453  148.6026  155.0788 C.ar    1  UNL1        0.0787
     14 C         139.7517  149.0542  153.7411 C.ar    1  UNL1        0.1442
     15 F         140.3634  148.0622  152.7967 F       1  UNL1       -0.2040
     16 C         139.6463  150.4979  153.3476 C.ar    1  UNL1        0.0299
     17 C         139.0346  151.4898  154.2921 C.ar    1  UNL1        0.0046
     18 C         138.5282  151.0382  155.6298 C.ar    1  UNL1        0.0299
     19 C         138.6336  149.5944  156.0231 C.ar    1  UNL1        0.1442
     20 F         138.1272  149.1428  157.3608 F       1  UNL1       -0.2040
     21 C         144.0533  141.2911  161.7326 C.3     1  UNL1        0.1552
     22 N         143.8680  142.0367  160.4443 N.ar    1  UNL1       -0.2344
     23 N         144.7357  141.9215  159.2261 N.ar    1  UNL1       -0.1652
     24 C         144.1864  142.8420  158.1769 C.ar    1  UNL1        0.1376
     25 C         142.9791  143.5261  158.7466 C.ar    1  UNL1        0.1034
     26 C         142.7824  143.0284  160.1479 C.ar    1  UNL1        0.1438
     27 N         141.6915  143.4488  161.0877 N.pl3   1  UNL1       -0.2923
     28 C         140.3034  143.0305  160.7022 C.3     1  UNL1        0.0937
     29 C         139.0139  143.2920  161.4225 C.3     1  UNL1        0.0397
     30 C         138.7940  144.0361  162.7061 C.3     1  UNL1        0.0856
     31 N         137.3706  144.1256  163.1709 N.3     1  UNL1       -0.3200
     32 C         139.8091  144.7027  163.5866 C.3     1  UNL1        0.1767
     33 F         139.2667  145.3705  164.8152 F       1  UNL1       -0.2358
     34 C         141.2950  144.7897  163.4008 C.3     1  UNL1        0.0581
     35 C         142.1327  144.2316  162.2886 C.3     1  UNL1        0.0950
     36 H         137.3309  144.6478  164.0461 H       1  UNL1        0.1189
     37 H         137.0014  143.1863  163.3183 H       1  UNL1        0.1189
@<TRIPOS>BOND
     1    21    22    1
     2    22    23   ar
     3    23    24   ar
     4    24    25   ar
     5    25     1    1
     6     1     2   am
     7     2     3    2
     8     2     5    1
     9     5     6   ar
    10     6     7   ar
    11     7    13    1
    12    13    14   ar
    13    14    15    1
    14    14    16   ar
    15    16    17   ar
    16    17    18   ar
    17    18    19   ar
    18    19    20    1
    19     7     8   ar
    20     8     9   ar
    21     9    10    1
    22    25    26   ar
    23    26    27    1
    24    27    28    1
    25    28    29    1
    26    29    30    1
    27    30    31    1
    28    30    32    1
    29    32    33    1
    30    32    34    1
    31    34    35    1
    32    26    22   ar
    33    35    27    1
    34     9     5   ar
    35    19    13   ar
    36     1     4    1
    37    10    11    1
    38    10    12    1
    39    31    36    1
    40    31    37    1
@<TRIPOS>MOLECULE
*****
 37 40 0 0 0
SMALL
GASTEIGER

@<TRIPOS>ATOM
      1 N         140.5679  144.1462  163.0968 N.am    1  UNL1       -0.2756
      2 C         141.9644  144.0821  163.6406 C.2     1  UNL1        0.2691
      3 O         143.0831  144.7721  162.9177 O.2     1  UNL1       -0.2681
      4 H         139.8337  143.6933  163.5712 H       1  UNL1        0.1553
      5 C         142.2423  143.3280  164.9071 C.ar    1  UNL1        0.1543
      6 N         141.2256  142.9219  165.9325 N.ar    1  UNL1       -0.2323
      7 C         141.9406  142.1905  167.0297 C.ar    1  UNL1        0.1164
      8 S         143.3990  142.1446  166.6824 S.2     1  UNL1       -0.0520
      9 C         143.5855  142.8475  165.3706 C.ar    1  UNL1        0.0957
     10 N         144.8868  143.0369  164.6488 N.pl3   1  UNL1       -0.3508
     11 H         145.7202  142.6833  165.0356 H       1  UNL1        0.1429
     12 H         144.9074  143.5147  163.7883 H       1  UNL1        0.1429
     13 C         141.3080  141.6074  168.2586 C.ar    1  UNL1        0.0787
     14 C         140.3879  142.4440  169.0973 C.ar    1  UNL1        0.1442
     15 F         140.1004  143.8636  168.7073 F       1  UNL1       -0.2040
     16 C         139.7553  141.8610  170.3262 C.ar    1  UNL1        0.0299
     17 C         140.0429  140.4413  170.7161 C.ar    1  UNL1        0.0046
     18 C         140.9630  139.6048  169.8773 C.ar    1  UNL1        0.0299
     19 C         141.5955  140.1879  168.6485 C.ar    1  UNL1        0.1442
     20 F         142.5156  139.3513  167.8097 F       1  UNL1       -0.2040
     21 C         140.1851  145.4061  157.9834 C.3     1  UNL1        0.1552
     22 N         140.1140  145.4795  159.4799 N.ar    1  UNL1       -0.2344
     23 N         139.6106  146.6423  160.2828 N.ar    1  UNL1       -0.1652
     24 C         139.7194  146.2843  161.7354 C.ar    1  UNL1        0.1376
     25 C         140.2900  144.9003  161.8303 C.ar    1  UNL1        0.1034
     26 C         140.5339  144.4029  160.4363 C.ar    1  UNL1        0.1438
     27 N         141.0985  143.0640  160.0642 N.pl3   1  UNL1       -0.2923
     28 C         142.5518  143.0511  159.6925 C.3     1  UNL1        0.0937
     29 C         143.4007  141.8860  159.2777 C.3     1  UNL1        0.0397
     30 C         143.0061  140.4463  159.1324 C.3     1  UNL1        0.0856
     31 N         144.0967  139.5135  158.6958 N.3     1  UNL1       -0.3200
     32 C         141.6652  139.8158  159.3658 C.3     1  UNL1        0.1767
     33 F         141.5922  138.3360  159.1318 F       1  UNL1       -0.2358
     34 C         140.3877  140.4695  159.8022 C.3     1  UNL1        0.0581
     35 C         140.1356  141.9151  160.1131 C.3     1  UNL1        0.0950
     36 H         143.7265  138.5655  158.6282 H       1  UNL1        0.1189
     37 H         144.8552  139.5345  159.3775 H       1  UNL1        0.1189
@<TRIPOS>BOND
     1    21    22    1
     2    22    23   ar
     3    23    24   ar
     4    24    25   ar
     5    25     1    1
     6     1     2   am
     7     2     3    2
     8     2     5    1
     9     5     6   ar
    10     6     7   ar
    11     7    13    1
    12    13    14   ar
    13    14    15    1
    14    14    16   ar
    15    16    17   ar
    16    17    18   ar
    17    18    19   ar
    18    19    20    1
    19     7     8   ar
    20     8     9   ar
    21     9    10    1
    22    25    26   ar
    23    26    27    1
    24    27    28    1
    25    28    29    1
    26    29    30    1
    27    30    31    1
    28    30    32    1
    29    32    33    1
    30    32    34    1
    31    34    35    1
    32    26    22   ar
    33    35    27    1
    34     9     5   ar
    35    19    13   ar
    36     1     4    1
    37    10    11    1
    38    10    12    1
    39    31    36    1
    40    31    37    1
@<TRIPOS>MOLECULE
*****
 37 40 0 0 0
SMALL
GASTEIGER

@<TRIPOS>ATOM
      1 N         141.5926  139.6457  161.1937 N.am    1  UNL1       -0.2756
      2 C         140.2036  139.2889  161.6332 C.2     1  UNL1        0.2691
      3 O         139.3796  138.3378  160.8166 O.2     1  UNL1       -0.2681
      4 H         142.1334  140.2699  161.7296 H       1  UNL1        0.1553
      5 C         139.6384  139.8829  162.8893 C.ar    1  UNL1        0.1543
      6 N         140.3652  140.0481  164.1911 N.ar    1  UNL1       -0.2323
      7 C         139.4233  140.6833  165.1704 C.ar    1  UNL1        0.1164
      8 S         138.1144  140.9107  164.4740 S.2     1  UNL1       -0.0520
      9 C         138.2474  140.4161  163.0642 C.ar    1  UNL1        0.0957
     10 N         137.1771  140.4488  162.0136 N.pl3   1  UNL1       -0.3508
     11 H         136.2905  140.8206  162.2256 H       1  UNL1        0.1429
     12 H         137.3613  140.0985  161.1122 H       1  UNL1        0.1429
     13 C         139.7355  141.0302  166.5960 C.ar    1  UNL1        0.0787
     14 C         140.4432  142.3129  166.9180 C.ar    1  UNL1        0.1442
     15 F         140.8387  143.2488  165.8144 F       1  UNL1       -0.2040
     16 C         140.7554  142.6599  168.3436 C.ar    1  UNL1        0.0299
     17 C         140.3599  141.7239  169.4471 C.ar    1  UNL1        0.0046
     18 C         139.6522  140.4412  169.1251 C.ar    1  UNL1        0.0299
     19 C         139.3400  140.0943  167.6995 C.ar    1  UNL1        0.1442
     20 F         138.6323  138.8116  167.3775 F       1  UNL1       -0.2040
     21 C         143.3329  139.0980  156.2387 C.3     1  UNL1        0.1552
     22 N         142.9577  138.7998  157.6601 N.ar    1  UNL1       -0.2344
     23 N         143.0972  137.4750  158.3495 N.ar    1  UNL1       -0.1652
     24 C         142.6028  137.6306  159.7571 C.ar    1  UNL1        0.1376
     25 C         142.1577  139.0517  159.9376 C.ar    1  UNL1        0.1034
     26 C         142.3771  139.7743  158.6416 C.ar    1  UNL1        0.1438
     27 N         142.0697  141.2179  158.3742 N.pl3   1  UNL1       -0.2923
     28 C         143.2381  142.1560  158.4456 C.3     1  UNL1        0.0937
     29 C         143.2599  143.6405  158.2312 C.3     1  UNL1        0.0397
     30 C         142.1190  144.5533  157.8924 C.3     1  UNL1        0.0856
     31 N         142.4690  146.0042  157.7417 N.3     1  UNL1       -0.3200
     32 C         140.6744  144.2074  157.6842 C.3     1  UNL1        0.1767
     33 F         139.7708  145.3578  157.3530 F       1  UNL1       -0.2358
     34 C         140.0139  142.8629  157.7636 C.3     1  UNL1        0.0581
     35 C         140.6350  141.5325  158.0706 C.3     1  UNL1        0.0950
     36 H         141.6284  146.5347  157.5130 H       1  UNL1        0.1189
     37 H         143.1537  146.1128  156.9936 H       1  UNL1        0.1189
@<TRIPOS>BOND
     1    21    22    1
     2    22    23   ar
     3    23    24   ar
     4    24    25   ar
     5    25     1    1
     6     1     2   am
     7     2     3    2
     8     2     5    1
     9     5     6   ar
    10     6     7   ar
    11     7    13    1
    12    13    14   ar
    13    14    15    1
    14    14    16   ar
    15    16    17   ar
    16    17    18   ar
    17    18    19   ar
    18    19    20    1
    19     7     8   ar
    20     8     9   ar
    21     9    10    1
    22    25    26   ar
    23    26    27    1
    24    27    28    1
    25    28    29    1
    26    29    30    1
    27    30    31    1
    28    30    32    1
    29    32    33    1
    30    32    34    1
    31    34    35    1
    32    26    22   ar
    33    35    27    1
    34     9     5   ar
    35    19    13   ar
    36     1     4    1
    37    10    11    1
    38    10    12    1
    39    31    36    1
    40    31    37    1
@<TRIPOS>MOLECULE
*****
 37 40 0 0 0
SMALL
GASTEIGER

@<TRIPOS>ATOM
      1 N         142.8594  139.1524  163.5676 N.am    1  UNL1       -0.2756
      2 C         141.5466  138.8672  162.9005 C.2     1  UNL1        0.2691
      3 O         140.3122  138.6669  163.7290 O.2     1  UNL1       -0.2681
      4 H         143.6695  139.2839  163.0239 H       1  UNL1        0.1553
      5 C         141.4680  138.7823  161.4050 C.ar    1  UNL1        0.1543
      6 N         142.6233  138.8867  160.4540 N.ar    1  UNL1       -0.2323
      7 C         142.0896  138.7470  159.0592 C.ar    1  UNL1        0.1164
      8 S         140.6045  138.5563  159.1481 S.2     1  UNL1       -0.0520
      9 C         140.2203  138.5781  160.5978 C.ar    1  UNL1        0.0957
     10 N         138.8320  138.4229  161.1444 N.pl3   1  UNL1       -0.3508
     11 H         138.0731  138.2926  160.5310 H       1  UNL1        0.1429
     12 H         138.6798  138.4514  162.1167 H       1  UNL1        0.1429
     13 C         142.8991  138.7904  157.7970 C.ar    1  UNL1        0.0787
     14 C         143.6481  140.0368  157.4289 C.ar    1  UNL1        0.1442
     15 F         143.5876  141.2398  158.3230 F       1  UNL1       -0.2040
     16 C         144.4575  140.0803  156.1668 C.ar    1  UNL1        0.0299
     17 C         144.5179  138.8773  155.2728 C.ar    1  UNL1        0.0046
     18 C         143.7690  137.6309  155.6409 C.ar    1  UNL1        0.0299
     19 C         142.9595  137.5875  156.9031 C.ar    1  UNL1        0.1442
     20 F         142.2106  136.3411  157.2711 F       1  UNL1       -0.2040
     21 C         142.4655  140.9292  168.5243 C.3     1  UNL1        0.1552
     22 N         142.7570  140.0540  167.3415 N.ar    1  UNL1       -0.2344
     23 N         143.3611  138.6817  167.3875 N.ar    1  UNL1       -0.1652
     24 C         143.4730  138.1770  165.9795 C.ar    1  UNL1        0.1376
     25 C         142.9380  139.2373  165.0631 C.ar    1  UNL1        0.1034
     26 C         142.4955  140.3973  165.9049 C.ar    1  UNL1        0.1438
     27 N         141.8967  141.6761  165.3988 N.pl3   1  UNL1       -0.2923
     28 C         142.8439  142.6070  164.7014 C.3     1  UNL1        0.0937
     29 C         142.5582  143.9467  164.0900 C.3     1  UNL1        0.0397
     30 C         141.2550  144.6862  164.0250 C.3     1  UNL1        0.0856
     31 N         141.2967  146.0195  163.3389 N.3     1  UNL1       -0.3200
     32 C         139.9153  144.2689  164.5553 C.3     1  UNL1        0.1767
     33 F         138.7946  145.2400  164.3294 F       1  UNL1       -0.2358
     34 C         139.5482  143.0089  165.2816 C.3     1  UNL1        0.0581
     35 C         140.4301  141.8550  165.6570 C.3     1  UNL1        0.0950
     36 H         140.3658  146.4363  163.3489 H       1  UNL1        0.1189
     37 H         141.6035  145.8958  162.3740 H       1  UNL1        0.1189
@<TRIPOS>BOND
     1    21    22    1
     2    22    23   ar
     3    23    24   ar
     4    24    25   ar
     5    25     1    1
     6     1     2   am
     7     2     3    2
     8     2     5    1
     9     5     6   ar
    10     6     7   ar
    11     7    13    1
    12    13    14   ar
    13    14    15    1
    14    14    16   ar
    15    16    17   ar
    16    17    18   ar
    17    18    19   ar
    18    19    20    1
    19     7     8   ar
    20     8     9   ar
    21     9    10    1
    22    25    26   ar
    23    26    27    1
    24    27    28    1
    25    28    29    1
    26    29    30    1
    27    30    31    1
    28    30    32    1
    29    32    33    1
    30    32    34    1
    31    34    35    1
    32    26    22   ar
    33    35    27    1
    34     9     5   ar
    35    19    13   ar
    36     1     4    1
    37    10    11    1
    38    10    12    1
    39    31    36    1
    40    31    37    1
@<TRIPOS>MOLECULE
*****
 37 40 0 0 0
SMALL
GASTEIGER

@<TRIPOS>ATOM
      1 N         140.5041  143.2441  161.2466 N.am    1  UNL1       -0.2756
      2 C         139.2407  142.9269  161.9904 C.2     1  UNL1        0.2691
      3 O         137.9137  143.3369  161.4236 O.2     1  UNL1       -0.2681
      4 H         141.3750  142.9750  161.6186 H       1  UNL1        0.1553
      5 C         139.3041  142.1999  163.3009 C.ar    1  UNL1        0.1543
      6 N         140.4702  142.1830  164.2442 N.ar    1  UNL1       -0.2323
      7 C         140.0995  141.3348  165.4244 C.ar    1  UNL1        0.1164
      8 S         138.7042  140.8274  165.2105 S.2     1  UNL1       -0.0520
      9 C         138.2127  141.3620  163.8981 C.ar    1  UNL1        0.0957
     10 N         136.8661  141.1041  163.2897 N.pl3   1  UNL1       -0.3508
     11 H         136.2134  140.5373  163.7609 H       1  UNL1        0.1429
     12 H         136.6349  141.5016  162.4192 H       1  UNL1        0.1429
     13 C         140.9710  141.0448  166.6104 C.ar    1  UNL1        0.0787
     14 C         141.7371  139.7572  166.6812 C.ar    1  UNL1        0.1442
     15 F         141.6316  138.7594  165.5661 F       1  UNL1       -0.2040
     16 C         142.6086  139.4672  167.8671 C.ar    1  UNL1        0.0299
     17 C         142.7140  140.4649  168.9822 C.ar    1  UNL1        0.0046
     18 C         141.9480  141.7526  168.9114 C.ar    1  UNL1        0.0299
     19 C         141.0764  142.0425  167.7254 C.ar    1  UNL1        0.1442
     20 F         140.3104  143.3302  167.6546 F       1  UNL1       -0.2040
     21 C         140.3724  144.2549  156.0658 C.3     1  UNL1        0.1552
     22 N         140.3801  144.4359  157.5548 N.ar    1  UNL1       -0.2344
     23 N         140.3059  145.7444  158.2845 N.ar    1  UNL1       -0.1652
     24 C         140.3433  145.4572  159.7562 C.ar    1  UNL1        0.1376
     25 C         140.4406  143.9711  159.9362 C.ar    1  UNL1        0.1034
     26 C         140.4634  143.3400  158.5757 C.ar    1  UNL1        0.1438
     27 N         140.5535  141.8708  158.2868 N.pl3   1  UNL1       -0.2923
     28 C         139.2769  141.2134  157.8531 C.3     1  UNL1        0.0937
     29 C         139.0398  139.7760  157.4952 C.3     1  UNL1        0.0397
     30 C         140.0207  138.6414  157.4828 C.3     1  UNL1        0.0856
     31 N         139.4682  137.3080  157.0740 N.3     1  UNL1       -0.3200
     32 C         141.4809  138.6635  157.8250 C.3     1  UNL1        0.1767
     33 F         142.1957  137.3496  157.7132 F       1  UNL1       -0.2358
     34 C         142.3210  139.8260  158.2643 C.3     1  UNL1        0.0581
     35 C         141.9081  141.2534  158.4698 C.3     1  UNL1        0.0950
     36 H         140.2116  136.6100  157.0987 H       1  UNL1        0.1189
     37 H         139.0925  137.3713  156.1278 H       1  UNL1        0.1189
@<TRIPOS>BOND
     1    21    22    1
     2    22    23   ar
     3    23    24   ar
     4    24    25   ar
     5    25     1    1
     6     1     2   am
     7     2     3    2
     8     2     5    1
     9     5     6   ar
    10     6     7   ar
    11     7    13    1
    12    13    14   ar
    13    14    15    1
    14    14    16   ar
    15    16    17   ar
    16    17    18   ar
    17    18    19   ar
    18    19    20    1
    19     7     8   ar
    20     8     9   ar
    21     9    10    1
    22    25    26   ar
    23    26    27    1
    24    27    28    1
    25    28    29    1
    26    29    30    1
    27    30    31    1
    28    30    32    1
    29    32    33    1
    30    32    34    1
    31    34    35    1
    32    26    22   ar
    33    35    27    1
    34     9     5   ar
    35    19    13   ar
    36     1     4    1
    37    10    11    1
    38    10    12    1
    39    31    36    1
    40    31    37    1
