@<TRIPOS>MOLECULE
*****
 26 28 0 0 0
SMALL
GASTEIGER

@<TRIPOS>ATOM
      1 C         142.4728  140.0777  164.2984 C.ar    1  UNL1        0.2424
      2 C         143.3629  138.9072  164.5943 C.ar    1  UNL1        0.0641
      3 C         143.5726  138.4640  166.0119 C.ar    1  UNL1        0.0674
      4 C         142.8922  139.1913  167.1336 C.ar    1  UNL1        0.2807
      5 O         143.1019  138.7481  168.5512 O.2     1  UNL1       -0.2651
      6 N         142.0022  140.3619  166.8377 N.ar    1  UNL1       -0.1916
      7 N         141.7925  140.8051  165.4201 N.ar    1  UNL1       -0.1248
      8 C         141.3219  141.0892  167.9593 C.ar    1  UNL1        0.0885
      9 C         141.8934  142.3771  168.4739 C.ar    1  UNL1        0.0217
     10 C         141.2131  143.1044  169.5955 C.ar    1  UNL1        0.0335
     11 C         139.9612  142.5439  170.2026 C.ar    1  UNL1        0.1675
     12 F         139.2809  143.2712  171.3243 F       1  UNL1       -0.2018
     13 C         139.3896  141.2561  169.6881 C.ar    1  UNL1        0.1689
     14 F         138.1377  140.6956  170.2951 F       1  UNL1       -0.2017
     15 C         140.0700  140.5287  168.5664 C.ar    1  UNL1        0.0512
     16 O         142.2631  140.5210  162.8808 O.3     1  UNL1       -0.4592
     17 C         142.4685  139.5524  161.7540 C.3     1  UNL1        0.2086
     18 C         141.3271  138.7042  161.2766 C.3     1  UNL1        0.0647
     19 C         139.9141  139.1186  161.5624 C.3     1  UNL1        0.0759
     20 C         137.6945  138.5830  167.1109 C.3     1  UNL1        0.0001
     21 C         138.2494  138.7169  165.7238 C.3     1  UNL1        0.0028
     22 C         138.0520  139.9907  164.9568 C.3     1  UNL1        0.0174
     23 C         138.6069  140.1246  163.5696 C.3     1  UNL1        0.0721
     24 N         139.3592  138.9847  162.9495 N.3     1  UNL1       -0.2726
     25 C         139.5565  137.7108  163.7165 C.3     1  UNL1        0.0721
     26 C         139.0016  137.5770  165.1037 C.3     1  UNL1        0.0174
@<TRIPOS>BOND
     1    20    21    1
     2    21    22    1
     3    22    23    1
     4    23    24    1
     5    24    19    1
     6    19    18    1
     7    18    17    1
     8    17    16    1
     9    16     1    1
    10     1     2   ar
    11     2     3   ar
    12     3     4   ar
    13     4     5    2
    14     4     6   ar
    15     6     8    1
    16     8     9   ar
    17     9    10   ar
    18    10    11   ar
    19    11    12    1
    20    11    13   ar
    21    13    14    1
    22    13    15   ar
    23     6     7   ar
    24    24    25    1
    25    25    26    1
    26    26    21    1
    27     7     1   ar
    28    15     8   ar
@<TRIPOS>MOLECULE
*****
 26 28 0 0 0
SMALL
GASTEIGER

@<TRIPOS>ATOM
      1 C         140.6073  143.8865  163.1364 C.ar    1  UNL1        0.2424
      2 C         141.4895  145.0968  163.2191 C.ar    1  UNL1        0.0641
      3 C         142.8179  145.0108  163.9105 C.ar    1  UNL1        0.0674
      4 C         143.2641  143.7145  164.5192 C.ar    1  UNL1        0.2807
      5 O         144.5925  143.6285  165.2105 O.2     1  UNL1       -0.2651
      6 N         142.3819  142.5041  164.4365 N.ar    1  UNL1       -0.1916
      7 N         141.0535  142.5901  163.7451 N.ar    1  UNL1       -0.1248
      8 C         142.8281  141.2079  165.0451 C.ar    1  UNL1        0.0885
      9 C         143.7570  140.3048  164.2892 C.ar    1  UNL1        0.0217
     10 C         144.2032  139.0085  164.8978 C.ar    1  UNL1        0.0335
     11 C         143.7204  138.6152  166.2625 C.ar    1  UNL1        0.1675
     12 F         144.1666  137.3189  166.8712 F       1  UNL1       -0.2018
     13 C         142.7915  139.5183  167.0185 C.ar    1  UNL1        0.1689
     14 F         142.3088  139.1251  168.3832 F       1  UNL1       -0.2017
     15 C         142.3453  140.8147  166.4098 C.ar    1  UNL1        0.0512
     16 O         139.2789  143.9725  162.4451 O.3     1  UNL1       -0.4592
     17 C         138.0203  144.0964  163.2517 C.3     1  UNL1        0.2086
     18 C         137.4519  142.8934  163.9443 C.3     1  UNL1        0.0647
     19 C         137.3280  141.5927  163.2076 C.3     1  UNL1        0.0759
     20 C         141.0482  137.0597  164.4773 C.3     1  UNL1        0.0001
     21 C         140.1181  138.1930  164.1599 C.3     1  UNL1        0.0028
     22 C         139.4657  138.9614  165.2707 C.3     1  UNL1        0.0174
     23 C         138.5357  140.0946  164.9532 C.3     1  UNL1        0.0721
     24 N         138.2580  140.4595  163.5251 N.3     1  UNL1       -0.2726
     25 C         138.9104  139.6910  162.4143 C.3     1  UNL1        0.0721
     26 C         139.8405  138.5578  162.7317 C.3     1  UNL1        0.0174
@<TRIPOS>BOND
     1    20    21    1
     2    21    22    1
     3    22    23    1
     4    23    24    1
     5    24    19    1
     6    19    18    1
     7    18    17    1
     8    17    16    1
     9    16     1    1
    10     1     2   ar
    11     2     3   ar
    12     3     4   ar
    13     4     5    2
    14     4     6   ar
    15     6     8    1
    16     8     9   ar
    17     9    10   ar
    18    10    11   ar
    19    11    12    1
    20    11    13   ar
    21    13    14    1
    22    13    15   ar
    23     6     7   ar
    24    24    25    1
    25    25    26    1
    26    26    21    1
    27     7     1   ar
    28    15     8   ar
@<TRIPOS>MOLECULE
*****
 26 28 0 0 0
SMALL
GASTEIGER

@<TRIPOS>ATOM
      1 C         139.9889  139.1705  164.7047 C.ar    1  UNL1        0.2424
      2 C         138.7389  138.4741  165.1545 C.ar    1  UNL1        0.0641
      3 C         138.2552  138.6380  166.5649 C.ar    1  UNL1        0.0674
      4 C         139.0215  139.4983  167.5254 C.ar    1  UNL1        0.2807
      5 O         138.5377  139.6622  168.9358 O.2     1  UNL1       -0.2651
      6 N         140.2715  140.1948  167.0756 N.ar    1  UNL1       -0.1916
      7 N         140.7553  140.0309  165.6652 N.ar    1  UNL1       -0.1248
      8 C         141.0378  141.0551  168.0361 C.ar    1  UNL1        0.0885
      9 C         142.3790  140.6083  168.5376 C.ar    1  UNL1        0.0217
     10 C         143.1453  141.4686  169.4981 C.ar    1  UNL1        0.0335
     11 C         142.5704  142.7759  169.9571 C.ar    1  UNL1        0.1675
     12 F         143.3366  143.6362  170.9176 F       1  UNL1       -0.2018
     13 C         141.2292  143.2227  169.4556 C.ar    1  UNL1        0.1689
     14 F         140.6543  144.5299  169.9145 F       1  UNL1       -0.2017
     15 C         140.4629  142.3623  168.4950 C.ar    1  UNL1        0.0512
     16 O         140.4727  139.0066  163.2943 O.3     1  UNL1       -0.4592
     17 C         139.7074  139.6255  162.1622 C.3     1  UNL1        0.2086
     18 C         140.3869  140.5912  161.2371 C.3     1  UNL1        0.0647
     19 C         139.8650  141.9906  161.0986 C.3     1  UNL1        0.0759
     20 C         138.3815  145.1371  165.9872 C.3     1  UNL1        0.0001
     21 C         138.7524  144.3505  164.7651 C.3     1  UNL1        0.0028
     22 C         137.7383  144.1223  163.6837 C.3     1  UNL1        0.0174
     23 C         138.1091  143.3357  162.4615 C.3     1  UNL1        0.0721
     24 N         139.4941  142.7772  162.3207 N.3     1  UNL1       -0.2726
     25 C         140.5082  143.0053  163.4022 C.3     1  UNL1        0.0721
     26 C         140.1373  143.7919  164.6243 C.3     1  UNL1        0.0174
@<TRIPOS>BOND
     1    20    21    1
     2    21    22    1
     3    22    23    1
     4    23    24    1
     5    24    19    1
     6    19    18    1
     7    18    17    1
     8    17    16    1
     9    16     1    1
    10     1     2   ar
    11     2     3   ar
    12     3     4   ar
    13     4     5    2
    14     4     6   ar
    15     6     8    1
    16     8     9   ar
    17     9    10   ar
    18    10    11   ar
    19    11    12    1
    20    11    13   ar
    21    13    14    1
    22    13    15   ar
    23     6     7   ar
    24    24    25    1
    25    25    26    1
    26    26    21    1
    27     7     1   ar
    28    15     8   ar
@<TRIPOS>MOLECULE
*****
 26 28 0 0 0
SMALL
GASTEIGER

@<TRIPOS>ATOM
      1 C         140.5926  138.9835  163.1732 C.ar    1  UNL1        0.2424
      2 C         141.1463  140.1963  162.4860 C.ar    1  UNL1        0.0641
      3 C         141.6308  141.3619  163.2965 C.ar    1  UNL1        0.0674
      4 C         141.5615  141.3146  164.7941 C.ar    1  UNL1        0.2807
      5 O         142.0459  142.4801  165.6045 O.2     1  UNL1       -0.2651
      6 N         141.0077  140.1017  165.4814 N.ar    1  UNL1       -0.1916
      7 N         140.5232  138.9361  164.6709 N.ar    1  UNL1       -0.1248
      8 C         140.9383  140.0544  166.9790 C.ar    1  UNL1        0.0885
      9 C         142.1690  139.7410  167.7772 C.ar    1  UNL1        0.0217
     10 C         142.0997  139.6937  169.2748 C.ar    1  UNL1        0.0335
     11 C         140.7996  139.9598  169.9743 C.ar    1  UNL1        0.1675
     12 F         140.7303  139.9125  171.4719 F       1  UNL1       -0.2018
     13 C         139.5690  140.2732  169.1760 C.ar    1  UNL1        0.1689
     14 F         138.2690  140.5393  169.8754 F       1  UNL1       -0.2017
     15 C         139.6383  140.3205  167.6783 C.ar    1  UNL1        0.0512
     16 O         140.1081  137.8179  162.3628 O.3     1  UNL1       -0.4592
     17 C         139.0659  138.0225  161.3034 C.3     1  UNL1        0.2086
     18 C         137.7697  138.6949  161.6465 C.3     1  UNL1        0.0647
     19 C         137.5221  140.1102  161.2158 C.3     1  UNL1        0.0759
     20 C         138.4755  144.6240  165.0520 C.3     1  UNL1        0.0001
     21 C         138.2372  143.4956  164.0929 C.3     1  UNL1        0.0028
     22 C         138.2778  143.7464  162.6147 C.3     1  UNL1        0.0174
     23 C         138.0394  142.6180  161.6556 C.3     1  UNL1        0.0721
     24 N         137.7604  141.2387  162.1748 N.3     1  UNL1       -0.2726
     25 C         137.7199  140.9878  163.6531 C.3     1  UNL1        0.0721
     26 C         137.9582  142.1163  164.6122 C.3     1  UNL1        0.0174
@<TRIPOS>BOND
     1    20    21    1
     2    21    22    1
     3    22    23    1
     4    23    24    1
     5    24    19    1
     6    19    18    1
     7    18    17    1
     8    17    16    1
     9    16     1    1
    10     1     2   ar
    11     2     3   ar
    12     3     4   ar
    13     4     5    2
    14     4     6   ar
    15     6     8    1
    16     8     9   ar
    17     9    10   ar
    18    10    11   ar
    19    11    12    1
    20    11    13   ar
    21    13    14    1
    22    13    15   ar
    23     6     7   ar
    24    24    25    1
    25    25    26    1
    26    26    21    1
    27     7     1   ar
    28    15     8   ar
@<TRIPOS>MOLECULE
*****
 26 28 0 0 0
SMALL
GASTEIGER

@<TRIPOS>ATOM
      1 C         137.9461  140.4386  163.0666 C.ar    1  UNL1        0.2424
      2 C         137.9873  139.1232  162.3470 C.ar    1  UNL1        0.0641
      3 C         138.7509  137.9720  162.9317 C.ar    1  UNL1        0.0674
      4 C         139.4732  138.1363  164.2360 C.ar    1  UNL1        0.2807
      5 O         140.2367  136.9852  164.8207 O.2     1  UNL1       -0.2651
      6 N         139.4319  139.4518  164.9557 N.ar    1  UNL1       -0.1916
      7 N         138.6684  140.6030  164.3710 N.ar    1  UNL1       -0.1248
      8 C         140.1542  139.6161  166.2600 C.ar    1  UNL1        0.0885
      9 C         141.6518  139.5429  166.3024 C.ar    1  UNL1        0.0217
     10 C         142.3741  139.7072  167.6067 C.ar    1  UNL1        0.0335
     11 C         141.5988  139.9447  168.8687 C.ar    1  UNL1        0.1675
     12 F         142.3211  140.1090  170.1730 F       1  UNL1       -0.2018
     13 C         140.1012  140.0179  168.8263 C.ar    1  UNL1        0.1689
     14 F         139.3259  140.2554  170.0882 F       1  UNL1       -0.2017
     15 C         139.3789  139.8536  167.5219 C.ar    1  UNL1        0.0512
     16 O         137.1825  141.5897  162.4819 O.3     1  UNL1       -0.4592
     17 C         137.8415  142.9292  162.3344 C.3     1  UNL1        0.2086
     18 C         137.8066  143.9111  163.4679 C.3     1  UNL1        0.0647
     19 C         138.8898  144.9400  163.6024 C.3     1  UNL1        0.0759
     20 C         144.4730  143.2522  165.0093 C.3     1  UNL1        0.0001
     21 C         143.0772  143.6742  164.6576 C.3     1  UNL1        0.0028
     22 C         142.8529  144.7314  163.6175 C.3     1  UNL1        0.0174
     23 C         141.4571  145.1533  163.2657 C.3     1  UNL1        0.0721
     24 N         140.2856  144.5180  163.9541 N.3     1  UNL1       -0.2726
     25 C         140.5099  143.4608  164.9943 C.3     1  UNL1        0.0721
     26 C         141.9057  143.0389  165.3460 C.3     1  UNL1        0.0174
@<TRIPOS>BOND
     1    20    21    1
     2    21    22    1
     3    22    23    1
     4    23    24    1
     5    24    19    1
     6    19    18    1
     7    18    17    1
     8    17    16    1
     9    16     1    1
    10     1     2   ar
    11     2     3   ar
    12     3     4   ar
    13     4     5    2
    14     4     6   ar
    15     6     8    1
    16     8     9   ar
    17     9    10   ar
    18    10    11   ar
    19    11    12    1
    20    11    13   ar
    21    13    14    1
    22    13    15   ar
    23     6     7   ar
    24    24    25    1
    25    25    26    1
    26    26    21    1
    27     7     1   ar
    28    15     8   ar
@<TRIPOS>MOLECULE
*****
 26 28 0 0 0
SMALL
GASTEIGER

@<TRIPOS>ATOM
      1 C         143.7681  141.3996  163.3301 C.ar    1  UNL1        0.2424
      2 C         144.9812  140.5771  163.6488 C.ar    1  UNL1        0.0641
      3 C         144.8704  139.4069  164.5807 C.ar    1  UNL1        0.0674
      4 C         143.5464  139.0594  165.1940 C.ar    1  UNL1        0.2807
      5 O         143.4355  137.8892  166.1259 O.2     1  UNL1       -0.2651
      6 N         142.3331  139.8820  164.8754 N.ar    1  UNL1       -0.1916
      7 N         142.4440  141.0521  163.9434 N.ar    1  UNL1       -0.1248
      8 C         141.0091  139.5344  165.4887 C.ar    1  UNL1        0.0885
      9 C         140.0440  138.6603  164.7441 C.ar    1  UNL1        0.0217
     10 C         138.7200  138.3127  165.3574 C.ar    1  UNL1        0.0335
     11 C         138.3610  138.8394  166.7153 C.ar    1  UNL1        0.1675
     12 F         137.0370  138.4918  167.3286 F       1  UNL1       -0.2018
     13 C         139.3261  139.7136  167.4599 C.ar    1  UNL1        0.1689
     14 F         138.9673  140.2402  168.8177 F       1  UNL1       -0.2017
     15 C         140.6502  140.0611  166.8465 C.ar    1  UNL1        0.0512
     16 O         143.8789  142.5698  162.3982 O.3     1  UNL1       -0.4592
     17 C         144.2033  143.9310  162.9387 C.3     1  UNL1        0.2086
     18 C         143.1729  145.0202  162.8952 C.3     1  UNL1        0.0647
     19 C         142.0626  145.0430  163.9034 C.3     1  UNL1        0.0759
     20 C         137.4504  141.2421  163.3733 C.3     1  UNL1        0.0001
     21 C         138.6035  142.1923  163.5058 C.3     1  UNL1        0.0028
     22 C         139.0308  142.6685  164.8625 C.3     1  UNL1        0.0174
     23 C         140.1839  143.6187  164.9950 C.3     1  UNL1        0.0721
     24 N         140.9096  144.0928  163.7709 N.3     1  UNL1       -0.2726
     25 C         140.4822  143.6167  162.4142 C.3     1  UNL1        0.0721
     26 C         139.3292  142.6664  162.2817 C.3     1  UNL1        0.0174
@<TRIPOS>BOND
     1    20    21    1
     2    21    22    1
     3    22    23    1
     4    23    24    1
     5    24    19    1
     6    19    18    1
     7    18    17    1
     8    17    16    1
     9    16     1    1
    10     1     2   ar
    11     2     3   ar
    12     3     4   ar
    13     4     5    2
    14     4     6   ar
    15     6     8    1
    16     8     9   ar
    17     9    10   ar
    18    10    11   ar
    19    11    12    1
    20    11    13   ar
    21    13    14    1
    22    13    15   ar
    23     6     7   ar
    24    24    25    1
    25    25    26    1
    26    26    21    1
    27     7     1   ar
    28    15     8   ar
@<TRIPOS>MOLECULE
*****
 26 28 0 0 0
SMALL
GASTEIGER

@<TRIPOS>ATOM
      1 C         140.9077  144.4231  163.7600 C.ar    1  UNL1        0.2424
      2 C         139.8643  145.1150  162.9339 C.ar    1  UNL1        0.0641
      3 C         138.5816  144.4114  162.6028 C.ar    1  UNL1        0.0674
      4 C         138.3424  143.0157  163.0977 C.ar    1  UNL1        0.2807
      5 O         137.0597  142.3121  162.7666 O.2     1  UNL1       -0.2651
      6 N         139.3858  142.3237  163.9238 N.ar    1  UNL1       -0.1916
      7 N         140.6685  143.0274  164.2550 N.ar    1  UNL1       -0.1248
      8 C         139.1466  140.9281  164.4188 C.ar    1  UNL1        0.0885
      9 C         138.9024  140.6814  165.8780 C.ar    1  UNL1        0.0217
     10 C         138.6632  139.2858  166.3730 C.ar    1  UNL1        0.0335
     11 C         138.6681  138.1368  165.4086 C.ar    1  UNL1        0.1675
     12 F         138.4289  136.7412  165.9035 F       1  UNL1       -0.2018
     13 C         138.9122  138.3835  163.9493 C.ar    1  UNL1        0.1689
     14 F         138.9172  137.2347  162.9850 F       1  UNL1       -0.2017
     15 C         139.1515  139.7792  163.4544 C.ar    1  UNL1        0.0512
     16 O         142.1904  145.1267  164.0911 O.3     1  UNL1       -0.4592
     17 C         143.4862  144.6325  163.5194 C.3     1  UNL1        0.2086
     18 C         144.3925  143.7724  164.3493 C.3     1  UNL1        0.0647
     19 C         144.1971  142.2855  164.3773 C.3     1  UNL1        0.0759
     20 C         141.5749  139.6928  169.1104 C.3     1  UNL1        0.0001
     21 C         142.2305  140.3409  167.9271 C.3     1  UNL1        0.0028
     22 C         142.6383  141.7829  167.9922 C.3     1  UNL1        0.0174
     23 C         143.2939  142.4311  166.8090 C.3     1  UNL1        0.0721
     24 N         143.5415  141.6373  165.5606 N.3     1  UNL1       -0.2726
     25 C         143.1337  140.1953  165.4955 C.3     1  UNL1        0.0721
     26 C         142.4781  139.5471  166.6788 C.3     1  UNL1        0.0174
@<TRIPOS>BOND
     1    20    21    1
     2    21    22    1
     3    22    23    1
     4    23    24    1
     5    24    19    1
     6    19    18    1
     7    18    17    1
     8    17    16    1
     9    16     1    1
    10     1     2   ar
    11     2     3   ar
    12     3     4   ar
    13     4     5    2
    14     4     6   ar
    15     6     8    1
    16     8     9   ar
    17     9    10   ar
    18    10    11   ar
    19    11    12    1
    20    11    13   ar
    21    13    14    1
    22    13    15   ar
    23     6     7   ar
    24    24    25    1
    25    25    26    1
    26    26    21    1
    27     7     1   ar
    28    15     8   ar
@<TRIPOS>MOLECULE
*****
 26 28 0 0 0
SMALL
GASTEIGER

@<TRIPOS>ATOM
      1 C         139.0830  139.7617  166.5495 C.ar    1  UNL1        0.2424
      2 C         139.0825  139.8382  168.0475 C.ar    1  UNL1        0.0641
      3 C         139.9169  140.8707  168.7460 C.ar    1  UNL1        0.0674
      4 C         140.7517  141.8266  167.9466 C.ar    1  UNL1        0.2807
      5 O         141.5860  142.8590  168.6451 O.2     1  UNL1       -0.2651
      6 N         140.7522  141.7501  166.4484 N.ar    1  UNL1       -0.1916
      7 N         139.9178  140.7177  165.7499 N.ar    1  UNL1       -0.1248
      8 C         141.5870  142.7061  165.6490 C.ar    1  UNL1        0.0885
      9 C         143.0835  142.6444  165.7306 C.ar    1  UNL1        0.0217
     10 C         143.9183  143.6003  164.9312 C.ar    1  UNL1        0.0335
     11 C         143.2566  144.6180  164.0499 C.ar    1  UNL1        0.1675
     12 F         144.0914  145.5740  163.2504 F       1  UNL1       -0.2018
     13 C         141.7601  144.6797  163.9682 C.ar    1  UNL1        0.1689
     14 F         141.0984  145.6974  163.0871 F       1  UNL1       -0.2017
     15 C         140.9253  143.7237  164.7678 C.ar    1  UNL1        0.0512
     16 O         138.2486  138.7293  165.8510 O.3     1  UNL1       -0.4592
     17 C         138.9057  137.5451  165.2059 C.3     1  UNL1        0.2086
     18 C         139.4498  137.6560  163.8125 C.3     1  UNL1        0.0647
     19 C         140.8067  137.1033  163.4910 C.3     1  UNL1        0.0759
     20 C         145.6651  140.5853  164.0121 C.3     1  UNL1        0.0001
     21 C         144.4505  139.7148  163.8818 C.3     1  UNL1        0.0028
     22 C         143.9523  139.3210  162.5229 C.3     1  UNL1        0.0174
     23 C         142.7377  138.4505  162.3926 C.3     1  UNL1        0.0721
     24 N         142.0213  137.9738  163.6213 N.3     1  UNL1       -0.2726
     25 C         142.5195  138.3676  164.9801 C.3     1  UNL1        0.0721
     26 C         143.7341  139.2381  165.1104 C.3     1  UNL1        0.0174
@<TRIPOS>BOND
     1    20    21    1
     2    21    22    1
     3    22    23    1
     4    23    24    1
     5    24    19    1
     6    19    18    1
     7    18    17    1
     8    17    16    1
     9    16     1    1
    10     1     2   ar
    11     2     3   ar
    12     3     4   ar
    13     4     5    2
    14     4     6   ar
    15     6     8    1
    16     8     9   ar
    17     9    10   ar
    18    10    11   ar
    19    11    12    1
    20    11    13   ar
    21    13    14    1
    22    13    15   ar
    23     6     7   ar
    24    24    25    1
    25    25    26    1
    26    26    21    1
    27     7     1   ar
    28    15     8   ar
@<TRIPOS>MOLECULE
*****
 26 28 0 0 0
SMALL
GASTEIGER

@<TRIPOS>ATOM
      1 C         141.3045  144.1635  163.1324 C.ar    1  UNL1        0.2424
      2 C         142.4506  145.1230  163.0073 C.ar    1  UNL1        0.0641
      3 C         143.6602  144.9644  163.8800 C.ar    1  UNL1        0.0674
      4 C         143.7238  143.8463  164.8778 C.ar    1  UNL1        0.2807
      5 O         144.9334  143.6876  165.7505 O.2     1  UNL1       -0.2651
      6 N         142.5776  142.8866  165.0029 N.ar    1  UNL1       -0.1916
      7 N         141.3680  143.0453  164.1302 N.ar    1  UNL1       -0.1248
      8 C         142.6412  141.7685  166.0007 C.ar    1  UNL1        0.0885
      9 C         142.4312  142.0515  167.4587 C.ar    1  UNL1        0.0217
     10 C         142.4948  140.9334  168.4566 C.ar    1  UNL1        0.0335
     11 C         142.7683  139.5321  167.9964 C.ar    1  UNL1        0.1675
     12 F         142.8318  138.4140  168.9942 F       1  UNL1       -0.2018
     13 C         142.9783  139.2491  166.5383 C.ar    1  UNL1        0.1689
     14 F         143.2518  137.8479  166.0781 F       1  UNL1       -0.2017
     15 C         142.9147  140.3673  165.5405 C.ar    1  UNL1        0.0512
     16 O         140.0948  144.3221  162.2597 O.3     1  UNL1       -0.4592
     17 C         138.7871  144.7455  162.8602 C.3     1  UNL1        0.2086
     18 C         137.7427  143.7185  163.1834 C.3     1  UNL1        0.0647
     19 C         137.7852  142.9928  164.4955 C.3     1  UNL1        0.0759
     20 C         139.6440  137.2921  164.7122 C.3     1  UNL1        0.0001
     21 C         139.1793  138.7173  164.6580 C.3     1  UNL1        0.0028
     22 C         138.5493  139.2537  163.4069 C.3     1  UNL1        0.0174
     23 C         138.0846  140.6789  163.3527 C.3     1  UNL1        0.0721
     24 N         138.2499  141.5677  164.5497 N.3     1  UNL1       -0.2726
     25 C         138.8799  141.0313  165.8008 C.3     1  UNL1        0.0721
     26 C         139.3446  139.6061  165.8550 C.3     1  UNL1        0.0174
@<TRIPOS>BOND
     1    20    21    1
     2    21    22    1
     3    22    23    1
     4    23    24    1
     5    24    19    1
     6    19    18    1
     7    18    17    1
     8    17    16    1
     9    16     1    1
    10     1     2   ar
    11     2     3   ar
    12     3     4   ar
    13     4     5    2
    14     4     6   ar
    15     6     8    1
    16     8     9   ar
    17     9    10   ar
    18    10    11   ar
    19    11    12    1
    20    11    13   ar
    21    13    14    1
    22    13    15   ar
    23     6     7   ar
    24    24    25    1
    25    25    26    1
    26    26    21    1
    27     7     1   ar
    28    15     8   ar
