@<TRIPOS>MOLECULE
*****
 19 20 0 0 0
SMALL
GASTEIGER

@<TRIPOS>ATOM
      1 C         140.0879  141.4993  167.2267 C.3     1  UNL1        0.0324
      2 C         139.5418  140.3534  168.0259 C.3     1  UNL1        0.0053
      3 C         139.4569  140.4543  169.5201 C.3     1  UNL1        0.0004
      4 C         139.9180  141.7011  170.2150 C.3     1  UNL1        0.0000
      5 C         140.4641  142.8469  169.4158 C.3     1  UNL1        0.0004
      6 C         140.5490  142.7461  167.9216 C.3     1  UNL1        0.0053
      7 C         139.7791  140.5340  166.1207 C.ar    1  UNL1       -0.0206
      8 C         138.6265  140.7955  165.1971 C.ar    1  UNL1       -0.0033
      9 C         138.3179  139.8303  164.0912 C.ar    1  UNL1        0.0119
     10 C         139.1618  138.6036  163.9089 C.ar    1  UNL1        0.0682
     11 CL        138.8530  137.6384  162.8029 Cl      1  UNL1       -0.0814
     12 C         140.3144  138.3422  164.8325 C.ar    1  UNL1        0.0679
     13 CL        141.1583  137.1156  164.6502 Cl      1  UNL1       -0.0814
     14 C         140.6231  139.3074  165.9384 C.ar    1  UNL1        0.0080
     15 C         139.6324  143.3825  165.4958 C.3     1  UNL1        0.0177
     16 C         140.5267  142.3100  166.0433 C.3     1  UNL1        0.0613
     17 N         141.8598  142.0481  165.4076 N.3     1  UNL1       -0.2713
     18 C         141.9787  141.9839  163.9136 C.3     1  UNL1        0.0896
     19 C         143.0741  141.8504  166.2657 C.3     1  UNL1        0.0896
@<TRIPOS>BOND
     1    15    16    1
     2    16    17    1
     3    17    18    1
     4    17    19    1
     5    16     1    1
     6     1     7    1
     7     7     8   ar
     8     8     9   ar
     9     9    10   ar
    10    10    11    1
    11    10    12   ar
    12    12    13    1
    13    12    14   ar
    14     1     2    1
    15     2     3    1
    16     3     4    1
    17     4     5    1
    18     5     6    1
    19     6     1    1
    20    14     7   ar
@<TRIPOS>MOLECULE
*****
 19 20 0 0 0
SMALL
GASTEIGER

@<TRIPOS>ATOM
      1 C         140.8051  141.4507  167.7741 C.3     1  UNL1        0.0324
      2 C         140.0041  140.4116  168.5010 C.3     1  UNL1        0.0053
      3 C         139.3864  140.7343  169.8292 C.3     1  UNL1        0.0004
      4 C         139.5699  142.0962  170.4306 C.3     1  UNL1        0.0000
      5 C         140.3710  143.1353  169.7037 C.3     1  UNL1        0.0004
      6 C         140.9886  142.8126  168.3754 C.3     1  UNL1        0.0053
      7 C         140.9129  140.3124  166.8031 C.ar    1  UNL1       -0.0206
      8 C         142.2217  139.6022  166.6222 C.ar    1  UNL1       -0.0033
      9 C         142.3294  138.4640  165.6513 C.ar    1  UNL1        0.0119
     10 C         141.1283  138.0359  164.8612 C.ar    1  UNL1        0.0682
     11 CL        141.2361  136.8976  163.8902 Cl      1  UNL1       -0.0814
     12 C         139.8196  138.7461  165.0421 C.ar    1  UNL1        0.0679
     13 CL        138.6185  138.3180  164.2520 Cl      1  UNL1       -0.0814
     14 C         139.7119  139.8843  166.0130 C.ar    1  UNL1        0.0080
     15 C         143.1299  142.1961  166.8854 C.3     1  UNL1        0.0177
     16 C         141.6437  142.0945  166.7099 C.3     1  UNL1        0.0613
     17 N         140.9960  142.6367  165.4704 N.3     1  UNL1       -0.2713
     18 C         139.7368  143.4453  165.5743 C.3     1  UNL1        0.0896
     19 C         141.6075  142.3704  164.1268 C.3     1  UNL1        0.0896
@<TRIPOS>BOND
     1    15    16    1
     2    16    17    1
     3    17    18    1
     4    17    19    1
     5    16     1    1
     6     1     7    1
     7     7     8   ar
     8     8     9   ar
     9     9    10   ar
    10    10    11    1
    11    10    12   ar
    12    12    13    1
    13    12    14   ar
    14     1     2    1
    15     2     3    1
    16     3     4    1
    17     4     5    1
    18     5     6    1
    19     6     1    1
    20    14     7   ar
@<TRIPOS>MOLECULE
*****
 19 20 0 0 0
SMALL
GASTEIGER

@<TRIPOS>ATOM
      1 C         139.6403  142.1400  165.8347 C.3     1  UNL1        0.0324
      2 C         139.7642  143.6266  165.9912 C.3     1  UNL1        0.0053
      3 C         138.8524  144.5398  165.2266 C.3     1  UNL1        0.0004
      4 C         137.8167  143.9663  164.3054 C.3     1  UNL1        0.0000
      5 C         137.6929  142.4797  164.1489 C.3     1  UNL1        0.0004
      6 C         138.6046  141.5665  164.9135 C.3     1  UNL1        0.0053
      7 C         140.7692  142.2049  166.8204 C.ar    1  UNL1       -0.0206
      8 C         142.1811  142.3501  166.3353 C.ar    1  UNL1       -0.0033
      9 C         143.3098  142.4151  167.3210 C.ar    1  UNL1        0.0119
     10 C         143.0266  142.3348  168.7919 C.ar    1  UNL1        0.0682
     11 CL        144.1555  142.3998  169.7776 Cl      1  UNL1       -0.0814
     12 C         141.6147  142.1896  169.2770 C.ar    1  UNL1        0.0679
     13 CL        141.3316  142.1094  170.7478 Cl      1  UNL1       -0.0814
     14 C         140.4860  142.1247  168.2913 C.ar    1  UNL1        0.0080
     15 C         139.1820  139.9096  167.0859 C.3     1  UNL1        0.0177
     16 C         139.9085  140.6758  166.0205 C.3     1  UNL1        0.0613
     17 N         140.9031  139.9780  165.1410 N.3     1  UNL1       -0.2713
     18 C         141.7330  138.8559  165.6907 C.3     1  UNL1        0.0896
     19 C         141.0680  140.4022  163.7117 C.3     1  UNL1        0.0896
@<TRIPOS>BOND
     1    15    16    1
     2    16    17    1
     3    17    18    1
     4    17    19    1
     5    16     1    1
     6     1     7    1
     7     7     8   ar
     8     8     9   ar
     9     9    10   ar
    10    10    11    1
    11    10    12   ar
    12    12    13    1
    13    12    14   ar
    14     1     2    1
    15     2     3    1
    16     3     4    1
    17     4     5    1
    18     5     6    1
    19     6     1    1
    20    14     7   ar
@<TRIPOS>MOLECULE
*****
 19 20 0 0 0
SMALL
GASTEIGER

@<TRIPOS>ATOM
      1 C         141.6454  142.0236  167.6400 C.3     1  UNL1        0.0324
      2 C         140.6276  142.8787  168.3347 C.3     1  UNL1        0.0053
      3 C         140.9244  143.4453  169.6915 C.3     1  UNL1        0.0004
      4 C         142.2391  143.1567  170.3535 C.3     1  UNL1        0.0000
      5 C         143.2569  142.3015  169.6588 C.3     1  UNL1        0.0004
      6 C         142.9601  141.7349  168.3020 C.3     1  UNL1        0.0053
      7 C         140.5523  142.0140  166.6127 C.ar    1  UNL1       -0.0206
      8 C         139.7975  140.7484  166.3324 C.ar    1  UNL1       -0.0033
      9 C         138.7046  140.7389  165.3052 C.ar    1  UNL1        0.0119
     10 C         138.3664  141.9950  164.5582 C.ar    1  UNL1        0.0682
     11 CL        137.2733  141.9854  163.5309 Cl      1  UNL1       -0.0814
     12 C         139.1212  143.2605  164.8385 C.ar    1  UNL1        0.0679
     13 CL        138.7830  144.5166  164.0915 Cl      1  UNL1       -0.0814
     14 C         140.2141  143.2701  165.8657 C.ar    1  UNL1        0.0080
     15 C         142.2946  139.6731  166.7434 C.3     1  UNL1        0.0177
     16 C         142.2836  141.1650  166.5885 C.3     1  UNL1        0.0613
     17 N         142.9109  141.7984  165.3821 N.3     1  UNL1       -0.2713
     18 C         143.8021  142.9945  165.5410 C.3     1  UNL1        0.0896
     19 C         142.6470  141.2358  164.0169 C.3     1  UNL1        0.0896
@<TRIPOS>BOND
     1    15    16    1
     2    16    17    1
     3    17    18    1
     4    17    19    1
     5    16     1    1
     6     1     7    1
     7     7     8   ar
     8     8     9   ar
     9     9    10   ar
    10    10    11    1
    11    10    12   ar
    12    12    13    1
    13    12    14   ar
    14     1     2    1
    15     2     3    1
    16     3     4    1
    17     4     5    1
    18     5     6    1
    19     6     1    1
    20    14     7   ar
@<TRIPOS>MOLECULE
*****
 19 20 0 0 0
SMALL
GASTEIGER

@<TRIPOS>ATOM
      1 C         143.4367  140.4553  165.3954 C.3     1  UNL1        0.0324
      2 C         143.3519  141.9012  165.7851 C.3     1  UNL1        0.0053
      3 C         144.2900  142.8991  165.1734 C.3     1  UNL1        0.0004
      4 C         145.3129  142.4510  164.1719 C.3     1  UNL1        0.0000
      5 C         145.3977  141.0050  163.7822 C.3     1  UNL1        0.0004
      6 C         144.4596  140.0071  164.3939 C.3     1  UNL1        0.0053
      7 C         142.3070  140.3937  166.3804 C.ar    1  UNL1       -0.0206
      8 C         140.9285  140.8176  165.9680 C.ar    1  UNL1       -0.0033
      9 C         139.7989  140.7561  166.9529 C.ar    1  UNL1        0.0119
     10 C         140.0478  140.2707  168.3502 C.ar    1  UNL1        0.0682
     11 CL        138.9181  140.2092  169.3352 Cl      1  UNL1       -0.0814
     12 C         141.4263  139.8469  168.7626 C.ar    1  UNL1        0.0679
     13 CL        141.6751  139.3615  170.1599 Cl      1  UNL1       -0.0814
     14 C         142.5559  139.9084  167.7777 C.ar    1  UNL1        0.0080
     15 C         143.8192  138.0460  166.2894 C.3     1  UNL1        0.0177
     16 C         143.1292  138.9879  165.3478 C.3     1  UNL1        0.0613
     17 N         142.1317  138.4624  164.3585 N.3     1  UNL1       -0.2713
     18 C         141.2694  137.2877  164.7147 C.3     1  UNL1        0.0896
     19 C         141.9963  139.1115  163.0130 C.3     1  UNL1        0.0896
@<TRIPOS>BOND
     1    15    16    1
     2    16    17    1
     3    17    18    1
     4    17    19    1
     5    16     1    1
     6     1     7    1
     7     7     8   ar
     8     8     9   ar
     9     9    10   ar
    10    10    11    1
    11    10    12   ar
    12    12    13    1
    13    12    14   ar
    14     1     2    1
    15     2     3    1
    16     3     4    1
    17     4     5    1
    18     5     6    1
    19     6     1    1
    20    14     7   ar
@<TRIPOS>MOLECULE
*****
 19 20 0 0 0
SMALL
GASTEIGER

@<TRIPOS>ATOM
      1 C         141.9348  142.2441  167.6448 C.3     1  UNL1        0.0324
      2 C         140.7715  142.7132  168.4673 C.3     1  UNL1        0.0053
      3 C         140.9809  143.1323  169.8923 C.3     1  UNL1        0.0004
      4 C         142.3538  143.0822  170.4947 C.3     1  UNL1        0.0000
      5 C         143.5171  142.6130  169.6722 C.3     1  UNL1        0.0004
      6 C         143.3076  142.1940  168.2472 C.3     1  UNL1        0.0053
      7 C         140.8331  142.1157  166.6349 C.ar    1  UNL1       -0.0206
      8 C         140.6152  143.1994  165.6209 C.ar    1  UNL1       -0.0033
      9 C         139.5136  143.0710  164.6110 C.ar    1  UNL1        0.0119
     10 C         138.6298  141.8590  164.6151 C.ar    1  UNL1        0.0682
     11 CL        137.5281  141.7307  163.6052 Cl      1  UNL1       -0.0814
     12 C         138.8477  140.7753  165.6291 C.ar    1  UNL1        0.0679
     13 CL        137.9640  139.5633  165.6332 Cl      1  UNL1       -0.0814
     14 C         139.9493  140.9037  166.6390 C.ar    1  UNL1        0.0080
     15 C         143.4385  142.6900  165.5736 C.3     1  UNL1        0.0177
     16 C         142.7155  141.7303  166.4715 C.3     1  UNL1        0.0613
     17 N         142.7732  140.2570  166.1961 N.3     1  UNL1       -0.2713
     18 C         142.8085  139.2819  167.3354 C.3     1  UNL1        0.0896
     19 C         142.7958  139.7587  164.7815 C.3     1  UNL1        0.0896
@<TRIPOS>BOND
     1    15    16    1
     2    16    17    1
     3    17    18    1
     4    17    19    1
     5    16     1    1
     6     1     7    1
     7     7     8   ar
     8     8     9   ar
     9     9    10   ar
    10    10    11    1
    11    10    12   ar
    12    12    13    1
    13    12    14   ar
    14     1     2    1
    15     2     3    1
    16     3     4    1
    17     4     5    1
    18     5     6    1
    19     6     1    1
    20    14     7   ar
@<TRIPOS>MOLECULE
*****
 19 20 0 0 0
SMALL
GASTEIGER

@<TRIPOS>ATOM
      1 C         141.4699  139.0868  165.9420 C.3     1  UNL1        0.0324
      2 C         140.2196  139.5678  166.6167 C.3     1  UNL1        0.0053
      3 C         138.8809  139.0708  166.1576 C.3     1  UNL1        0.0004
      4 C         138.7925  138.0928  165.0237 C.3     1  UNL1        0.0000
      5 C         140.0428  137.6118  164.3489 C.3     1  UNL1        0.0004
      6 C         141.3816  138.1088  164.8081 C.3     1  UNL1        0.0053
      7 C         142.0643  140.0090  166.9650 C.ar    1  UNL1       -0.0206
      8 C         142.4656  141.4011  166.5766 C.ar    1  UNL1       -0.0033
      9 C         143.0599  142.3233  167.5995 C.ar    1  UNL1        0.0119
     10 C         143.2529  141.8532  169.0109 C.ar    1  UNL1        0.0682
     11 CL        143.8473  142.7754  170.0338 Cl      1  UNL1       -0.0814
     12 C         142.8516  140.4611  169.3992 C.ar    1  UNL1        0.0679
     13 CL        143.0447  139.9911  170.8105 Cl      1  UNL1       -0.0814
     14 C         142.2573  139.5390  168.3763 C.ar    1  UNL1        0.0080
     15 C         143.7894  138.0462  166.4778 C.3     1  UNL1        0.0177
     16 C         142.9267  138.9261  165.6225 C.3     1  UNL1        0.0613
     17 N         143.5207  139.6452  164.4478 N.3     1  UNL1       -0.2713
     18 C         145.0106  139.7412  164.3022 C.3     1  UNL1        0.0896
     19 C         142.6249  140.2683  163.4186 C.3     1  UNL1        0.0896
@<TRIPOS>BOND
     1    15    16    1
     2    16    17    1
     3    17    18    1
     4    17    19    1
     5    16     1    1
     6     1     7    1
     7     7     8   ar
     8     8     9   ar
     9     9    10   ar
    10    10    11    1
    11    10    12   ar
    12    12    13    1
    13    12    14   ar
    14     1     2    1
    15     2     3    1
    16     3     4    1
    17     4     5    1
    18     5     6    1
    19     6     1    1
    20    14     7   ar
@<TRIPOS>MOLECULE
*****
 19 20 0 0 0
SMALL
GASTEIGER

@<TRIPOS>ATOM
      1 C         139.9509  141.7545  166.4293 C.3     1  UNL1        0.0324
      2 C         140.2775  142.9505  167.2737 C.3     1  UNL1        0.0053
      3 C         140.5071  142.7882  168.7471 C.3     1  UNL1        0.0004
      4 C         140.4100  141.4299  169.3761 C.3     1  UNL1        0.0000
      5 C         140.0834  140.2340  168.5318 C.3     1  UNL1        0.0004
      6 C         139.8538  140.3962  167.0584 C.3     1  UNL1        0.0053
      7 C         139.9322  142.8268  165.3805 C.ar    1  UNL1       -0.0206
      8 C         138.6350  143.2331  164.7464 C.ar    1  UNL1       -0.0033
      9 C         138.6165  144.3053  163.6976 C.ar    1  UNL1        0.0119
     10 C         139.8950  144.9711  163.2829 C.ar    1  UNL1        0.0682
     11 CL        139.8764  146.0434  162.2340 Cl      1  UNL1       -0.0814
     12 C         141.1922  144.5647  163.9170 C.ar    1  UNL1        0.0679
     13 CL        142.4708  145.2305  163.5023 Cl      1  UNL1       -0.0814
     14 C         141.2108  143.4926  164.9658 C.ar    1  UNL1        0.0080
     15 C         138.2023  140.5001  164.9736 C.3     1  UNL1        0.0177
     16 C         139.6177  140.9309  165.2207 C.3     1  UNL1        0.0613
     17 N         140.6999  140.5381  164.2593 N.3     1  UNL1       -0.2713
     18 C         142.0172  140.0397  164.7755 C.3     1  UNL1        0.0896
     19 C         140.4650  140.6437  162.7816 C.3     1  UNL1        0.0896
@<TRIPOS>BOND
     1    15    16    1
     2    16    17    1
     3    17    18    1
     4    17    19    1
     5    16     1    1
     6     1     7    1
     7     7     8   ar
     8     8     9   ar
     9     9    10   ar
    10    10    11    1
    11    10    12   ar
    12    12    13    1
    13    12    14   ar
    14     1     2    1
    15     2     3    1
    16     3     4    1
    17     4     5    1
    18     5     6    1
    19     6     1    1
    20    14     7   ar
@<TRIPOS>MOLECULE
*****
 19 20 0 0 0
SMALL
GASTEIGER

@<TRIPOS>ATOM
      1 C         141.7853  142.1170  167.8241 C.3     1  UNL1        0.0324
      2 C         143.1713  141.9593  168.3754 C.3     1  UNL1        0.0053
      3 C         143.5118  142.5254  169.7221 C.3     1  UNL1        0.0004
      4 C         142.4662  143.2492  170.5175 C.3     1  UNL1        0.0000
      5 C         141.0801  143.4070  169.9663 C.3     1  UNL1        0.0004
      6 C         140.7396  142.8409  168.6196 C.3     1  UNL1        0.0053
      7 C         142.4269  141.3562  166.7018 C.ar    1  UNL1       -0.0206
      8 C         142.6640  139.8811  166.8350 C.ar    1  UNL1       -0.0033
      9 C         143.3056  139.1203  165.7127 C.ar    1  UNL1        0.0119
     10 C         143.7101  139.8346  164.4573 C.ar    1  UNL1        0.0682
     11 CL        144.3517  139.0738  163.3350 Cl      1  UNL1       -0.0814
     12 C         143.4729  141.3097  164.3241 C.ar    1  UNL1        0.0679
     13 CL        143.8773  142.0241  163.0687 Cl      1  UNL1       -0.0814
     14 C         142.8313  142.0705  165.4464 C.ar    1  UNL1        0.0080
     15 C         140.2976  143.1475  165.9600 C.3     1  UNL1        0.0177
     16 C         140.6220  142.0106  166.8831 C.3     1  UNL1        0.0613
     17 N         139.7832  140.7672  166.8652 N.3     1  UNL1       -0.2713
     18 C         139.4856  140.0447  168.1456 C.3     1  UNL1        0.0896
     19 C         139.2419  140.2463  165.5669 C.3     1  UNL1        0.0896
@<TRIPOS>BOND
     1    15    16    1
     2    16    17    1
     3    17    18    1
     4    17    19    1
     5    16     1    1
     6     1     7    1
     7     7     8   ar
     8     8     9   ar
     9     9    10   ar
    10    10    11    1
    11    10    12   ar
    12    12    13    1
    13    12    14   ar
    14     1     2    1
    15     2     3    1
    16     3     4    1
    17     4     5    1
    18     5     6    1
    19     6     1    1
    20    14     7   ar
