@<TRIPOS>MOLECULE
*****
 24 26 0 0 0
SMALL
GASTEIGER

@<TRIPOS>ATOM
      1 N         144.5883  140.7530  164.5343 N.am    1  UNL1       -0.2606
      2 C         144.5278  139.2576  164.4333 C.3     1  UNL1        0.1169
      3 C         143.3986  138.7799  165.2975 C.3     1  UNL1        0.1212
      4 N         142.7613  139.9801  165.9326 N.am    1  UNL1       -0.2413
      5 C         143.4965  141.1995  165.4610 C.2     1  UNL1        0.3111
      6 O         143.1932  142.6166  165.8480 O.2     1  UNL1       -0.2520
      7 C         141.5936  139.9637  166.8741 C.ar    1  UNL1        0.0562
      8 C         141.7632  140.4365  168.2875 C.ar    1  UNL1        0.0150
      9 C         140.5956  140.4202  169.2290 C.ar    1  UNL1        0.0021
     10 C         139.2584  139.9311  168.7571 C.ar    1  UNL1        0.0115
     11 C         139.0889  139.4583  167.3437 C.ar    1  UNL1        0.0589
     12 CL        137.7516  138.9691  166.8717 Cl      1  UNL1       -0.0822
     13 C         140.2565  139.4746  166.4022 C.ar    1  UNL1        0.0263
     14 C         145.5685  141.6452  163.8320 C.3     1  UNL1        0.1123
     15 C         145.1461  142.4109  162.6134 C.3     1  UNL1        0.0940
     16 N         141.1597  144.4973  162.5367 N.3     1  UNL1       -0.2716
     17 C         142.3559  145.1868  163.1229 C.3     1  UNL1        0.0896
     18 C         143.6847  144.4913  163.1485 C.3     1  UNL1        0.0897
     19 N         143.8173  143.1064  162.5878 N.3     1  UNL1       -0.2688
     20 C         142.6210  142.4169  162.0017 C.3     1  UNL1        0.0897
     21 C         141.2923  143.1124  161.9761 C.3     1  UNL1        0.0896
     22 C         139.6312  146.3967  161.6391 C.3     1  UNL1        0.0173
     23 C         139.8309  145.1928  162.5112 C.3     1  UNL1        0.0577
     24 C         138.7019  144.6844  163.3578 C.3     1  UNL1        0.0173
@<TRIPOS>BOND
     1    22    23    1
     2    23    24    1
     3    23    16    1
     4    16    17    1
     5    17    18    1
     6    18    19    1
     7    19    15    1
     8    15    14    1
     9    14     1    1
    10     1     2    1
    11     2     3    1
    12     3     4    1
    13     4     7    1
    14     7     8   ar
    15     8     9   ar
    16     9    10   ar
    17    10    11   ar
    18    11    12    1
    19    11    13   ar
    20     4     5   am
    21     5     6    2
    22    19    20    1
    23    20    21    1
    24    21    16    1
    25     5     1   am
    26    13     7   ar
@<TRIPOS>MOLECULE
*****
 24 26 0 0 0
SMALL
GASTEIGER

@<TRIPOS>ATOM
      1 N         144.5682  140.5931  164.3967 N.am    1  UNL1       -0.2606
      2 C         144.2134  139.1592  164.1356 C.3     1  UNL1        0.1169
      3 C         143.1232  138.7703  165.0896 C.3     1  UNL1        0.1212
      4 N         142.8041  139.9638  165.9403 N.am    1  UNL1       -0.2413
      5 C         143.6971  141.0904  165.5121 C.2     1  UNL1        0.3111
      6 O         143.7159  142.4716  166.0966 O.2     1  UNL1       -0.2520
      7 C         141.7730  140.0208  167.0283 C.ar    1  UNL1        0.0562
      8 C         140.3256  139.8006  166.7021 C.ar    1  UNL1        0.0150
      9 C         139.2945  139.8576  167.7901 C.ar    1  UNL1        0.0021
     10 C         139.7109  140.1348  169.2042 C.ar    1  UNL1        0.0115
     11 C         141.1583  140.3551  169.5303 C.ar    1  UNL1        0.0589
     12 CL        141.5747  140.6323  170.9445 Cl      1  UNL1       -0.0822
     13 C         142.1894  140.2981  168.4424 C.ar    1  UNL1        0.0263
     14 C         145.6108  141.3898  163.6700 C.3     1  UNL1        0.1123
     15 C         145.2118  142.2973  162.5443 C.3     1  UNL1        0.0940
     16 N         141.2795  144.4797  162.6993 N.3     1  UNL1       -0.2716
     17 C         141.3582  143.1195  162.0719 C.3     1  UNL1        0.0896
     18 C         142.6690  142.3920  162.0202 C.3     1  UNL1        0.0897
     19 N         143.9011  143.0247  162.5960 N.3     1  UNL1       -0.2688
     20 C         143.8224  144.3849  163.2234 C.3     1  UNL1        0.0897
     21 C         142.5116  145.1124  163.2750 C.3     1  UNL1        0.0896
     22 C         138.9508  144.8455  163.7915 C.3     1  UNL1        0.0173
     23 C         139.9688  145.2071  162.7509 C.3     1  UNL1        0.0577
     24 C         139.6760  146.2963  161.7620 C.3     1  UNL1        0.0173
@<TRIPOS>BOND
     1    22    23    1
     2    23    24    1
     3    23    16    1
     4    16    17    1
     5    17    18    1
     6    18    19    1
     7    19    15    1
     8    15    14    1
     9    14     1    1
    10     1     2    1
    11     2     3    1
    12     3     4    1
    13     4     7    1
    14     7     8   ar
    15     8     9   ar
    16     9    10   ar
    17    10    11   ar
    18    11    12    1
    19    11    13   ar
    20     4     5   am
    21     5     6    2
    22    19    20    1
    23    20    21    1
    24    21    16    1
    25     5     1   am
    26    13     7   ar
@<TRIPOS>MOLECULE
*****
 24 26 0 0 0
SMALL
GASTEIGER

@<TRIPOS>ATOM
      1 N         138.9352  138.4784  163.0798 N.am    1  UNL1       -0.2606
      2 C         140.1137  137.5504  163.0737 C.3     1  UNL1        0.1169
      3 C         140.8680  137.7506  164.3548 C.3     1  UNL1        0.1212
      4 N         140.1557  138.8023  165.1526 N.am    1  UNL1       -0.2413
      5 C         138.9611  139.2522  164.3646 C.2     1  UNL1        0.3111
      6 O         137.9672  140.2929  164.7872 O.2     1  UNL1       -0.2520
      7 C         140.5658  139.3143  166.5015 C.ar    1  UNL1        0.0562
      8 C         142.0197  139.4870  166.8279 C.ar    1  UNL1        0.0150
      9 C         142.4298  139.9990  168.1769 C.ar    1  UNL1        0.0021
     10 C         141.3861  140.3384  169.1993 C.ar    1  UNL1        0.0115
     11 C         139.9322  140.1657  168.8729 C.ar    1  UNL1        0.0589
     12 CL        138.8885  140.5051  169.8954 Cl      1  UNL1       -0.0822
     13 C         139.5221  139.6537  167.5240 C.ar    1  UNL1        0.0263
     14 C         137.9107  138.6096  161.9921 C.3     1  UNL1        0.1123
     15 C         138.0580  139.6762  160.9478 C.3     1  UNL1        0.0940
     16 N         139.8186  143.6700  162.0433 N.3     1  UNL1       -0.2716
     17 C         138.3581  143.4084  162.2635 C.3     1  UNL1        0.0896
     18 C         137.7712  142.0771  161.8983 C.3     1  UNL1        0.0897
     19 N         138.6449  141.0075  161.3130 N.3     1  UNL1       -0.2688
     20 C         140.1053  141.2692  161.0928 C.3     1  UNL1        0.0897
     21 C         140.6922  142.6004  161.4580 C.3     1  UNL1        0.0896
     22 C         139.8257  146.2596  161.8336 C.3     1  UNL1        0.0173
     23 C         140.4054  145.0013  162.4085 C.3     1  UNL1        0.0577
     24 C         141.5720  145.0742  163.3486 C.3     1  UNL1        0.0173
@<TRIPOS>BOND
     1    22    23    1
     2    23    24    1
     3    23    16    1
     4    16    17    1
     5    17    18    1
     6    18    19    1
     7    19    15    1
     8    15    14    1
     9    14     1    1
    10     1     2    1
    11     2     3    1
    12     3     4    1
    13     4     7    1
    14     7     8   ar
    15     8     9   ar
    16     9    10   ar
    17    10    11   ar
    18    11    12    1
    19    11    13   ar
    20     4     5   am
    21     5     6    2
    22    19    20    1
    23    20    21    1
    24    21    16    1
    25     5     1   am
    26    13     7   ar
@<TRIPOS>MOLECULE
*****
 24 26 0 0 0
SMALL
GASTEIGER

@<TRIPOS>ATOM
      1 N         139.0547  138.8871  165.0568 N.am    1  UNL1       -0.2606
      2 C         138.0197  138.6823  166.1230 C.3     1  UNL1        0.1169
      3 C         138.5401  139.2821  167.3955 C.3     1  UNL1        0.1212
      4 N         139.8968  139.8576  167.1158 N.am    1  UNL1       -0.2413
      5 C         140.2149  139.6136  165.6704 C.2     1  UNL1        0.3111
      6 O         141.4722  140.0238  164.9629 O.2     1  UNL1       -0.2520
      7 C         140.7803  140.5549  168.1074 C.ar    1  UNL1        0.0562
      8 C         142.0080  139.8695  168.6301 C.ar    1  UNL1        0.0150
      9 C         142.8915  140.5667  169.6217 C.ar    1  UNL1        0.0021
     10 C         142.5473  141.9493  170.0906 C.ar    1  UNL1        0.0115
     11 C         141.3196  142.6347  169.5680 C.ar    1  UNL1        0.0589
     12 CL        140.9755  144.0174  170.0370 Cl      1  UNL1       -0.0822
     13 C         140.4361  141.9375  168.5764 C.ar    1  UNL1        0.0263
     14 C         138.9484  138.4435  163.6278 C.3     1  UNL1        0.1123
     15 C         138.5026  139.4122  162.5729 C.3     1  UNL1        0.0940
     16 N         140.0034  143.6541  162.6346 N.3     1  UNL1       -0.2716
     17 C         138.6974  143.3110  163.2877 C.3     1  UNL1        0.0896
     18 C         138.1971  141.8971  163.2671 C.3     1  UNL1        0.0897
     19 N         139.0028  140.8261  162.5935 N.3     1  UNL1       -0.2688
     20 C         140.3089  141.1692  161.9404 C.3     1  UNL1        0.0897
     21 C         140.8092  142.5831  161.9610 C.3     1  UNL1        0.0896
     22 C         139.7790  146.1313  161.8843 C.3     1  UNL1        0.0173
     23 C         140.5037  145.0680  162.6552 C.3     1  UNL1        0.0577
     24 C         141.7287  145.4187  163.4466 C.3     1  UNL1        0.0173
@<TRIPOS>BOND
     1    22    23    1
     2    23    24    1
     3    23    16    1
     4    16    17    1
     5    17    18    1
     6    18    19    1
     7    19    15    1
     8    15    14    1
     9    14     1    1
    10     1     2    1
    11     2     3    1
    12     3     4    1
    13     4     7    1
    14     7     8   ar
    15     8     9   ar
    16     9    10   ar
    17    10    11   ar
    18    11    12    1
    19    11    13   ar
    20     4     5   am
    21     5     6    2
    22    19    20    1
    23    20    21    1
    24    21    16    1
    25     5     1   am
    26    13     7   ar
@<TRIPOS>MOLECULE
*****
 24 26 0 0 0
SMALL
GASTEIGER

@<TRIPOS>ATOM
      1 N         140.5588  138.1577  164.7049 N.am    1  UNL1       -0.2606
      2 C         142.0503  138.0245  164.6187 C.3     1  UNL1        0.1169
      3 C         142.6472  138.7189  165.8068 C.3     1  UNL1        0.1212
      4 N         141.5245  139.2812  166.6273 N.am    1  UNL1       -0.2413
      5 C         140.2337  138.9344  165.9464 C.2     1  UNL1        0.3111
      6 O         138.8594  139.3000  166.4230 O.2     1  UNL1       -0.2520
      7 C         141.6673  140.0546  167.9046 C.ar    1  UNL1        0.0562
      8 C         142.4422  139.4740  169.0503 C.ar    1  UNL1        0.0150
      9 C         142.5850  140.2473  170.3276 C.ar    1  UNL1        0.0021
     10 C         141.9530  141.6013  170.4592 C.ar    1  UNL1        0.0115
     11 C         141.1782  142.1819  169.3136 C.ar    1  UNL1        0.0589
     12 CL        140.5462  143.5359  169.4452 Cl      1  UNL1       -0.0822
     13 C         141.0353  141.4085  168.0363 C.ar    1  UNL1        0.0263
     14 C         139.5664  137.6103  163.7222 C.3     1  UNL1        0.1123
     15 C         138.8906  138.5291  162.7481 C.3     1  UNL1        0.0940
     16 N         138.9506  142.9758  163.4359 N.3     1  UNL1       -0.2716
     17 C         137.7174  142.1840  163.7555 C.3     1  UNL1        0.0896
     18 C         137.6974  140.7018  163.5263 C.3     1  UNL1        0.0897
     19 N         138.9106  140.0113  162.9774 N.3     1  UNL1       -0.2688
     20 C         140.1438  140.8031  162.6577 C.3     1  UNL1        0.0897
     21 C         140.1638  142.2853  162.8870 C.3     1  UNL1        0.0896
     22 C         139.2157  145.3914  162.5168 C.3     1  UNL1        0.0173
     23 C         138.9706  144.4581  163.6652 C.3     1  UNL1        0.0577
     24 C         138.7456  145.0070  165.0428 C.3     1  UNL1        0.0173
@<TRIPOS>BOND
     1    22    23    1
     2    23    24    1
     3    23    16    1
     4    16    17    1
     5    17    18    1
     6    18    19    1
     7    19    15    1
     8    15    14    1
     9    14     1    1
    10     1     2    1
    11     2     3    1
    12     3     4    1
    13     4     7    1
    14     7     8   ar
    15     8     9   ar
    16     9    10   ar
    17    10    11   ar
    18    11    12    1
    19    11    13   ar
    20     4     5   am
    21     5     6    2
    22    19    20    1
    23    20    21    1
    24    21    16    1
    25     5     1   am
    26    13     7   ar
@<TRIPOS>MOLECULE
*****
 24 26 0 0 0
SMALL
GASTEIGER

@<TRIPOS>ATOM
      1 N         141.2632  138.1994  161.5752 N.am    1  UNL1       -0.2606
      2 C         139.8406  138.3493  161.1237 C.3     1  UNL1        0.1169
      3 C         139.0007  138.6497  162.3297 C.3     1  UNL1        0.1212
      4 N         139.9042  138.6854  163.5266 N.am    1  UNL1       -0.2413
      5 C         141.3025  138.4071  163.0603 C.2     1  UNL1        0.3111
      6 O         142.5254  138.3470  163.9268 O.2     1  UNL1       -0.2520
      7 C         139.4834  138.9525  164.9413 C.ar    1  UNL1        0.0562
      8 C         140.1971  139.9931  165.7524 C.ar    1  UNL1        0.0150
      9 C         139.7763  140.2602  167.1671 C.ar    1  UNL1        0.0021
     10 C         138.6418  139.4866  167.7709 C.ar    1  UNL1        0.0115
     11 C         137.9281  138.4460  166.9598 C.ar    1  UNL1        0.0589
     12 CL        136.7936  137.6723  167.5636 Cl      1  UNL1       -0.0822
     13 C         138.3490  138.1789  165.5451 C.ar    1  UNL1        0.0263
     14 C         142.4398  137.8951  160.6960 C.3     1  UNL1        0.1123
     15 C         143.3737  138.9949  160.2857 C.3     1  UNL1        0.0940
     16 N         143.9140  142.5929  162.9338 N.3     1  UNL1       -0.2716
     17 C         144.8010  141.3955  163.1052 C.3     1  UNL1        0.0896
     18 C         144.6209  140.1962  162.2225 C.3     1  UNL1        0.0897
     19 N         143.5538  140.1942  161.1684 N.3     1  UNL1       -0.2688
     20 C         142.6668  141.3916  160.9970 C.3     1  UNL1        0.0897
     21 C         142.8469  142.5909  161.8797 C.3     1  UNL1        0.0896
     22 C         143.8936  145.1704  163.2594 C.3     1  UNL1        0.0173
     23 C         144.0941  143.7922  163.8165 C.3     1  UNL1        0.0577
     24 C         144.4748  143.6134  165.2563 C.3     1  UNL1        0.0173
@<TRIPOS>BOND
     1    22    23    1
     2    23    24    1
     3    23    16    1
     4    16    17    1
     5    17    18    1
     6    18    19    1
     7    19    15    1
     8    15    14    1
     9    14     1    1
    10     1     2    1
    11     2     3    1
    12     3     4    1
    13     4     7    1
    14     7     8   ar
    15     8     9   ar
    16     9    10   ar
    17    10    11   ar
    18    11    12    1
    19    11    13   ar
    20     4     5   am
    21     5     6    2
    22    19    20    1
    23    20    21    1
    24    21    16    1
    25     5     1   am
    26    13     7   ar
@<TRIPOS>MOLECULE
*****
 24 26 0 0 0
SMALL
GASTEIGER

@<TRIPOS>ATOM
      1 N         140.9992  144.4826  163.9054 N.am    1  UNL1       -0.2606
      2 C         142.3535  143.8511  164.0357 C.3     1  UNL1        0.1169
      3 C         142.3201  142.9210  165.2120 C.3     1  UNL1        0.1212
      4 N         140.9451  142.9777  165.8088 N.am    1  UNL1       -0.2413
      5 C         140.1286  143.9428  165.0013 C.2     1  UNL1        0.3111
      6 O         138.6938  144.3047  165.2466 O.2     1  UNL1       -0.2520
      7 C         140.4698  142.2050  167.0034 C.ar    1  UNL1        0.0562
      8 C         139.9865  140.7943  166.8404 C.ar    1  UNL1        0.0150
      9 C         139.5112  140.0216  168.0350 C.ar    1  UNL1        0.0021
     10 C         139.5193  140.6595  169.3925 C.ar    1  UNL1        0.0115
     11 C         140.0026  142.0701  169.5555 C.ar    1  UNL1        0.0589
     12 CL        140.0106  142.7080  170.9132 Cl      1  UNL1       -0.0822
     13 C         140.4778  142.8429  168.3609 C.ar    1  UNL1        0.0263
     14 C         140.5876  145.4790  162.8624 C.3     1  UNL1        0.1123
     15 C         139.8499  145.0225  161.6388 C.3     1  UNL1        0.0940
     16 N         139.0315  140.6427  161.0080 N.3     1  UNL1       -0.2716
     17 C         140.3445  141.2294  160.5817 C.3     1  UNL1        0.0896
     18 C         140.6173  142.6893  160.7920 C.3     1  UNL1        0.0897
     19 N         139.5771  143.5626  161.4285 N.3     1  UNL1       -0.2688
     20 C         138.2641  142.9760  161.8548 C.3     1  UNL1        0.0897
     21 C         137.9913  141.5160  161.6446 C.3     1  UNL1        0.0896
     22 C         137.7857  138.4661  161.6864 C.3     1  UNL1        0.0173
     23 C         138.7587  139.1828  160.7978 C.3     1  UNL1        0.0577
     24 C         139.4588  138.4397  159.6989 C.3     1  UNL1        0.0173
@<TRIPOS>BOND
     1    22    23    1
     2    23    24    1
     3    23    16    1
     4    16    17    1
     5    17    18    1
     6    18    19    1
     7    19    15    1
     8    15    14    1
     9    14     1    1
    10     1     2    1
    11     2     3    1
    12     3     4    1
    13     4     7    1
    14     7     8   ar
    15     8     9   ar
    16     9    10   ar
    17    10    11   ar
    18    11    12    1
    19    11    13   ar
    20     4     5   am
    21     5     6    2
    22    19    20    1
    23    20    21    1
    24    21    16    1
    25     5     1   am
    26    13     7   ar
@<TRIPOS>MOLECULE
*****
 24 26 0 0 0
SMALL
GASTEIGER

@<TRIPOS>ATOM
      1 N         139.5032  138.3528  163.8003 N.am    1  UNL1       -0.2606
      2 C         140.9238  137.8796  163.8897 C.3     1  UNL1        0.1169
      3 C         141.5225  138.4445  165.1437 C.3     1  UNL1        0.1212
      4 N         140.4719  139.2667  165.8293 N.am    1  UNL1       -0.2413
      5 C         139.2239  139.2101  164.9991 C.2     1  UNL1        0.3111
      6 O         137.9248  139.8911  165.3126 O.2     1  UNL1       -0.2520
      7 C         140.6398  140.0144  167.1188 C.ar    1  UNL1        0.0562
      8 C         139.5573  139.9728  168.1563 C.ar    1  UNL1        0.0150
      9 C         139.7252  140.7205  169.4458 C.ar    1  UNL1        0.0021
     10 C         140.9757  141.5097  169.6978 C.ar    1  UNL1        0.0115
     11 C         142.0582  141.5512  168.6603 C.ar    1  UNL1        0.0589
     12 CL        143.3087  142.3405  168.9123 Cl      1  UNL1       -0.0822
     13 C         141.8903  140.8036  167.3708 C.ar    1  UNL1        0.0263
     14 C         138.5323  138.0261  162.7046 C.3     1  UNL1        0.1123
     15 C         138.0459  139.1078  161.7863 C.3     1  UNL1        0.0940
     16 N         139.7767  143.2515  162.0753 N.3     1  UNL1       -0.2716
     17 C         140.6327  142.1122  161.6073 C.3     1  UNL1        0.0896
     18 C         140.0557  140.7309  161.5109 C.3     1  UNL1        0.0897
     19 N         138.6228  140.4890  161.8826 N.3     1  UNL1       -0.2688
     20 C         137.7669  141.6284  162.3507 C.3     1  UNL1        0.0897
     21 C         138.3438  143.0096  162.4471 C.3     1  UNL1        0.0896
     22 C         140.1845  145.5972  161.0354 C.3     1  UNL1        0.0173
     23 C         140.3537  144.6328  162.1717 C.3     1  UNL1        0.0577
     24 C         141.0998  145.0496  163.4043 C.3     1  UNL1        0.0173
@<TRIPOS>BOND
     1    22    23    1
     2    23    24    1
     3    23    16    1
     4    16    17    1
     5    17    18    1
     6    18    19    1
     7    19    15    1
     8    15    14    1
     9    14     1    1
    10     1     2    1
    11     2     3    1
    12     3     4    1
    13     4     7    1
    14     7     8   ar
    15     8     9   ar
    16     9    10   ar
    17    10    11   ar
    18    11    12    1
    19    11    13   ar
    20     4     5   am
    21     5     6    2
    22    19    20    1
    23    20    21    1
    24    21    16    1
    25     5     1   am
    26    13     7   ar
@<TRIPOS>MOLECULE
*****
 24 26 0 0 0
SMALL
GASTEIGER

@<TRIPOS>ATOM
      1 N         139.0391  142.8832  160.8619 N.am    1  UNL1       -0.2606
      2 C         137.9470  143.4229  161.7371 C.3     1  UNL1        0.1169
      3 C         137.6656  142.4088  162.8060 C.3     1  UNL1        0.1212
      4 N         138.5839  141.2423  162.5913 N.am    1  UNL1       -0.2413
      5 C         139.4328  141.5354  161.3898 C.2     1  UNL1        0.3111
      6 O         140.4896  140.6384  160.8169 O.2     1  UNL1       -0.2520
      7 C         138.6430  140.0006  163.4307 C.ar    1  UNL1        0.0562
      8 C         139.0730  138.7007  162.8180 C.ar    1  UNL1        0.0150
      9 C         139.1321  137.4590  163.6574 C.ar    1  UNL1        0.0021
     10 C         138.7611  137.5171  165.1096 C.ar    1  UNL1        0.0115
     11 C         138.3310  138.8170  165.7224 C.ar    1  UNL1        0.0589
     12 CL        137.9600  138.8751  167.1747 Cl      1  UNL1       -0.0822
     13 C         138.2719  140.0587  164.8830 C.ar    1  UNL1        0.0263
     14 C         139.6332  143.5705  159.6683 C.3     1  UNL1        0.1123
     15 C         140.9243  144.3225  159.8015 C.3     1  UNL1        0.0940
     16 N         143.8204  143.2586  163.0772 N.3     1  UNL1       -0.2716
     17 C         144.0044  142.6925  161.7004 C.3     1  UNL1        0.0896
     18 C         143.0390  143.0472  160.6085 C.3     1  UNL1        0.0897
     19 N         141.8896  143.9679  160.8934 N.3     1  UNL1       -0.2688
     20 C         141.7057  144.5339  162.2702 C.3     1  UNL1        0.0897
     21 C         142.6710  144.1793  163.3621 C.3     1  UNL1        0.0896
     22 C         144.7605  143.6567  165.4663 C.3     1  UNL1        0.0173
     23 C         144.7858  142.9039  164.1691 C.3     1  UNL1        0.0577
     24 C         145.7764  141.7965  163.9639 C.3     1  UNL1        0.0173
@<TRIPOS>BOND
     1    22    23    1
     2    23    24    1
     3    23    16    1
     4    16    17    1
     5    17    18    1
     6    18    19    1
     7    19    15    1
     8    15    14    1
     9    14     1    1
    10     1     2    1
    11     2     3    1
    12     3     4    1
    13     4     7    1
    14     7     8   ar
    15     8     9   ar
    16     9    10   ar
    17    10    11   ar
    18    11    12    1
    19    11    13   ar
    20     4     5   am
    21     5     6    2
    22    19    20    1
    23    20    21    1
    24    21    16    1
    25     5     1   am
    26    13     7   ar
