@<TRIPOS>MOLECULE
*****
 39 44 0 0 0
SMALL
GASTEIGER

@<TRIPOS>ATOM
      1 C         140.1323  138.9830  165.2385 C.ar    1  UNL1        0.1879
      2 N         140.2462  137.5790  164.7230 N.ar    1  UNL1       -0.1271
      3 N         139.8533  137.5834  163.2753 N.ar    1  UNL1       -0.1330
      4 C         139.4967  138.9902  162.8961 C.ar    1  UNL1        0.1468
      5 N         139.6691  139.8552  164.1094 N.ar    1  UNL1       -0.2739
      6 C         139.4217  141.3329  164.1811 C.ar    1  UNL1        0.0939
      7 C         138.0178  141.8604  164.1561 C.ar    1  UNL1        0.0199
      8 C         137.7705  143.3382  164.2278 C.ar    1  UNL1        0.0016
      9 C         138.9271  144.2884  164.3244 C.ar    1  UNL1        0.0024
     10 C         140.3310  143.7609  164.3494 C.ar    1  UNL1        0.0311
     11 C         140.5783  142.2831  164.2777 C.ar    1  UNL1        0.1562
     12 F         141.9823  141.7556  164.3027 F       1  UNL1       -0.2026
     13 C         141.0237  140.3404  169.4352 C.ar    1  UNL1        0.1576
     14 C         139.6055  140.2859  168.9500 C.ar    1  UNL1        0.0402
     15 C         139.3084  139.8334  167.5510 C.ar    1  UNL1        0.0254
     16 C         140.4295  139.4355  166.6374 C.ar    1  UNL1        0.1176
     17 N         141.8478  139.4900  167.1227 N.ar    1  UNL1       -0.2376
     18 C         142.1450  139.9424  168.5216 C.ar    1  UNL1        0.1357
     19 O         141.3209  140.7929  170.8341 O.3     1  UNL1       -0.4739
     20 C         141.6714  143.2517  170.0718 C.3     1  UNL1        0.0512
     21 C         141.8920  142.1588  171.0752 C.3     1  UNL1        0.2056
     22 C         139.0466  139.4510  161.5415 C.3     1  UNL1        0.0624
     23 C         137.7252  139.8063  160.9270 C.3     1  UNL1        0.0272
     24 C         138.4101  140.1028  159.6257 C.3     1  UNL1        0.0727
     25 C         139.7314  139.7474  160.2404 C.3     1  UNL1        0.0272
     26 N         137.9600  140.5636  158.2711 N.am    1  UNL1       -0.3024
     27 C         137.9610  142.0261  157.9378 C.2     1  UNL1        0.2473
     28 O         138.4120  143.0278  158.9593 O.2     1  UNL1       -0.2701
     29 H         137.6640  139.9062  157.6007 H       1  UNL1        0.1497
     30 C         137.5109  142.4870  156.5832 C.ar    1  UNL1        0.0724
     31 C         138.2433  143.5951  155.8864 C.ar    1  UNL1        0.0061
     32 C         137.7933  144.0559  154.5317 C.ar    1  UNL1        0.0018
     33 C         136.6108  143.4087  153.8739 C.ar    1  UNL1        0.0206
     34 C         135.8783  142.3005  154.5708 C.ar    1  UNL1        0.0991
     35 N         134.6958  141.6533  153.9130 N.ar    1  UNL1       -0.2407
     36 C         133.9634  140.5452  154.6098 C.ar    1  UNL1        0.1195
     37 C         134.4134  140.0843  155.9644 C.ar    1  UNL1        0.1195
     38 N         135.5959  140.7316  156.6222 N.ar    1  UNL1       -0.2405
     39 C         136.3283  141.8396  155.9254 C.ar    1  UNL1        0.1033
@<TRIPOS>BOND
     1    20    21    1
     2    21    19    1
     3    19    13    1
     4    13    14   ar
     5    14    15   ar
     6    15    16   ar
     7    16     1    1
     8     1     2   ar
     9     2     3   ar
    10     3     4   ar
    11    22     4    1
    12    22    23    1
    13    23    24    1
    14    24    26    1
    15    26    27   am
    16    27    28    2
    17    27    30    1
    18    30    31   ar
    19    31    32   ar
    20    32    33   ar
    21    33    34   ar
    22    34    35   ar
    23    35    36   ar
    24    36    37   ar
    25    37    38   ar
    26    38    39   ar
    27    24    25    1
    28     4     5   ar
    29     5     6    1
    30     6     7   ar
    31     7     8   ar
    32     8     9   ar
    33     9    10   ar
    34    10    11   ar
    35    11    12    1
    36    16    17   ar
    37    17    18   ar
    38    18    13   ar
    39     5     1   ar
    40    11     6   ar
    41    25    22    1
    42    39    30   ar
    43    39    34   ar
    44    26    29    1
@<TRIPOS>MOLECULE
*****
 39 44 0 0 0
SMALL
GASTEIGER

@<TRIPOS>ATOM
      1 C         142.5733  141.8693  163.9292 C.ar    1  UNL1        0.1879
      2 N         143.6609  142.6540  163.2573 N.ar    1  UNL1       -0.1271
      3 N         143.9697  141.9909  161.9478 N.ar    1  UNL1       -0.1330
      4 C         143.0730  140.7964  161.8102 C.ar    1  UNL1        0.1468
      5 N         142.2100  140.7212  163.0348 N.ar    1  UNL1       -0.2739
      6 C         141.1668  139.6806  163.3157 C.ar    1  UNL1        0.0939
      7 C         139.7390  139.9259  162.9271 C.ar    1  UNL1        0.0199
      8 C         138.6958  138.8853  163.2080 C.ar    1  UNL1        0.0016
      9 C         139.0805  137.5993  163.8776 C.ar    1  UNL1        0.0024
     10 C         140.5083  137.3540  164.2663 C.ar    1  UNL1        0.0311
     11 C         141.5514  138.3946  163.9853 C.ar    1  UNL1        0.1562
     12 F         142.9793  138.1493  164.3740 F       1  UNL1       -0.2026
     13 C         140.7249  142.7964  167.9259 C.ar    1  UNL1        0.1576
     14 C         139.9944  143.1443  166.6630 C.ar    1  UNL1        0.0402
     15 C         140.6105  142.8352  165.3307 C.ar    1  UNL1        0.0254
     16 C         141.9572  142.1783  165.2614 C.ar    1  UNL1        0.1176
     17 N         142.6879  141.8304  166.5245 N.ar    1  UNL1       -0.2376
     18 C         142.0718  142.1395  167.8567 C.ar    1  UNL1        0.1357
     19 O         140.1089  143.1055  169.2582 O.3     1  UNL1       -0.4739
     20 C         139.3112  140.7025  169.8406 C.3     1  UNL1        0.0512
     21 C         139.9098  142.0110  170.2644 C.3     1  UNL1        0.2056
     22 C         143.0443  139.8442  160.6516 C.3     1  UNL1        0.0624
     23 C         142.9725  138.3530  160.5057 C.3     1  UNL1        0.0272
     24 C         143.0038  138.4976  159.0130 C.3     1  UNL1        0.0727
     25 C         143.0756  139.9887  159.1590 C.3     1  UNL1        0.0272
     26 N         142.9751  137.5454  157.8543 N.am    1  UNL1       -0.3024
     27 C         141.6722  137.2105  157.1908 C.2     1  UNL1        0.2473
     28 O         140.3979  137.8279  157.6859 O.2     1  UNL1       -0.2701
     29 H         143.8115  137.1402  157.5294 H       1  UNL1        0.1497
     30 C         141.6436  136.2583  156.0321 C.ar    1  UNL1        0.0724
     31 C         140.8052  136.5680  154.8275 C.ar    1  UNL1        0.0061
     32 C         140.7766  135.6158  153.6688 C.ar    1  UNL1        0.0018
     33 C         141.5863  134.3539  153.7148 C.ar    1  UNL1        0.0206
     34 C         142.4247  134.0443  154.9195 C.ar    1  UNL1        0.0991
     35 N         143.2344  132.7825  154.9655 N.ar    1  UNL1       -0.2407
     36 C         144.0728  132.4729  156.1701 C.ar    1  UNL1        0.1195
     37 C         144.1014  133.4250  157.3288 C.ar    1  UNL1        0.1195
     38 N         143.2917  134.6869  157.2828 N.ar    1  UNL1       -0.2405
     39 C         142.4534  134.9965  156.0781 C.ar    1  UNL1        0.1033
@<TRIPOS>BOND
     1    20    21    1
     2    21    19    1
     3    19    13    1
     4    13    14   ar
     5    14    15   ar
     6    15    16   ar
     7    16     1    1
     8     1     2   ar
     9     2     3   ar
    10     3     4   ar
    11    22     4    1
    12    22    23    1
    13    23    24    1
    14    24    26    1
    15    26    27   am
    16    27    28    2
    17    27    30    1
    18    30    31   ar
    19    31    32   ar
    20    32    33   ar
    21    33    34   ar
    22    34    35   ar
    23    35    36   ar
    24    36    37   ar
    25    37    38   ar
    26    38    39   ar
    27    24    25    1
    28     4     5   ar
    29     5     6    1
    30     6     7   ar
    31     7     8   ar
    32     8     9   ar
    33     9    10   ar
    34    10    11   ar
    35    11    12    1
    36    16    17   ar
    37    17    18   ar
    38    18    13   ar
    39     5     1   ar
    40    11     6   ar
    41    25    22    1
    42    39    30   ar
    43    39    34   ar
    44    26    29    1
@<TRIPOS>MOLECULE
*****
 39 44 0 0 0
SMALL
GASTEIGER

@<TRIPOS>ATOM
      1 C         141.1843  138.8337  164.8685 C.ar    1  UNL1        0.1879
      2 N         140.6149  137.5886  164.2556 N.ar    1  UNL1       -0.1271
      3 N         141.0922  137.5110  162.8357 N.ar    1  UNL1       -0.1330
      4 C         141.9564  138.7080  162.5709 C.ar    1  UNL1        0.1468
      5 N         142.0134  139.5255  163.8273 N.ar    1  UNL1       -0.2739
      6 C         142.7671  140.8094  164.0103 C.ar    1  UNL1        0.0939
      7 C         142.0256  142.1117  164.0750 C.ar    1  UNL1        0.0199
      8 C         142.7794  143.3956  164.2580 C.ar    1  UNL1        0.0016
      9 C         144.2745  143.3773  164.3765 C.ar    1  UNL1        0.0024
     10 C         145.0160  142.0750  164.3118 C.ar    1  UNL1        0.0311
     11 C         144.2623  140.7911  164.1288 C.ar    1  UNL1        0.1562
     12 F         145.0038  139.4888  164.0641 F       1  UNL1       -0.2026
     13 C         140.5214  140.2458  169.0894 C.ar    1  UNL1        0.1576
     14 C         139.3544  140.0816  168.1616 C.ar    1  UNL1        0.0402
     15 C         139.5754  139.6109  166.7545 C.ar    1  UNL1        0.0254
     16 C         140.9634  139.3044  166.2755 C.ar    1  UNL1        0.1176
     17 N         142.1304  139.4686  167.2034 N.ar    1  UNL1       -0.2376
     18 C         141.9095  139.9393  168.6104 C.ar    1  UNL1        0.1357
     19 O         140.3004  140.7165  170.4964 O.3     1  UNL1       -0.4739
     20 C         140.5462  143.2194  169.8445 C.3     1  UNL1        0.0512
     21 C         140.6261  142.1312  170.8738 C.3     1  UNL1        0.2056
     22 C         142.6432  139.0308  161.2771 C.3     1  UNL1        0.0624
     23 C         144.0625  138.9985  160.7928 C.3     1  UNL1        0.0272
     24 C         143.6144  139.4874  159.4472 C.3     1  UNL1        0.0727
     25 C         142.1952  139.5196  159.9317 C.3     1  UNL1        0.0272
     26 N         144.3012  139.8102  158.1534 N.am    1  UNL1       -0.3024
     27 C         144.7864  141.2048  157.8894 C.2     1  UNL1        0.2473
     28 O         144.5849  142.2766  158.9193 O.2     1  UNL1       -0.2701
     29 H         144.4335  139.1068  157.4774 H       1  UNL1        0.1497
     30 C         145.4732  141.5276  156.5955 C.ar    1  UNL1        0.0724
     31 C         146.7120  142.3734  156.5946 C.ar    1  UNL1        0.0061
     32 C         147.3987  142.6962  155.3007 C.ar    1  UNL1        0.0018
     33 C         146.8467  142.1733  154.0077 C.ar    1  UNL1        0.0206
     34 C         145.6079  141.3274  154.0086 C.ar    1  UNL1        0.0991
     35 N         145.0559  140.8045  152.7157 N.ar    1  UNL1       -0.2407
     36 C         143.8171  139.9587  152.7166 C.ar    1  UNL1        0.1195
     37 C         143.1303  139.6359  154.0105 C.ar    1  UNL1        0.1195
     38 N         143.6823  140.1588  155.3034 N.ar    1  UNL1       -0.2405
     39 C         144.9211  141.0046  155.3025 C.ar    1  UNL1        0.1033
@<TRIPOS>BOND
     1    20    21    1
     2    21    19    1
     3    19    13    1
     4    13    14   ar
     5    14    15   ar
     6    15    16   ar
     7    16     1    1
     8     1     2   ar
     9     2     3   ar
    10     3     4   ar
    11    22     4    1
    12    22    23    1
    13    23    24    1
    14    24    26    1
    15    26    27   am
    16    27    28    2
    17    27    30    1
    18    30    31   ar
    19    31    32   ar
    20    32    33   ar
    21    33    34   ar
    22    34    35   ar
    23    35    36   ar
    24    36    37   ar
    25    37    38   ar
    26    38    39   ar
    27    24    25    1
    28     4     5   ar
    29     5     6    1
    30     6     7   ar
    31     7     8   ar
    32     8     9   ar
    33     9    10   ar
    34    10    11   ar
    35    11    12    1
    36    16    17   ar
    37    17    18   ar
    38    18    13   ar
    39     5     1   ar
    40    11     6   ar
    41    25    22    1
    42    39    30   ar
    43    39    34   ar
    44    26    29    1
@<TRIPOS>MOLECULE
*****
 39 44 0 0 0
SMALL
GASTEIGER

@<TRIPOS>ATOM
      1 C         139.3233  142.2362  163.1499 C.ar    1  UNL1        0.1879
      2 N         137.9626  142.0530  162.5459 N.ar    1  UNL1       -0.1271
      3 N         137.9312  142.7925  161.2412 N.ar    1  UNL1       -0.1330
      4 C         139.2725  143.4329  161.0390 C.ar    1  UNL1        0.1468
      5 N         140.1328  143.0891  162.2186 N.ar    1  UNL1       -0.2739
      6 C         141.5533  143.5221  162.4299 C.ar    1  UNL1        0.0939
      7 C         141.8638  144.6353  163.3861 C.ar    1  UNL1        0.0199
      8 C         143.2844  145.0683  163.5973 C.ar    1  UNL1        0.0016
      9 C         144.3945  144.3880  162.8524 C.ar    1  UNL1        0.0024
     10 C         144.0840  143.2748  161.8962 C.ar    1  UNL1        0.0311
     11 C         142.6634  142.8419  161.6850 C.ar    1  UNL1        0.1562
     12 F         142.3530  141.7286  160.7288 F       1  UNL1       -0.2026
     13 C         140.7299  140.5277  167.0681 C.ar    1  UNL1        0.1576
     14 C         140.3206  141.9681  166.9819 C.ar    1  UNL1        0.0402
     15 C         139.8517  142.5376  165.6758 C.ar    1  UNL1        0.0254
     16 C         139.7922  141.6667  164.4560 C.ar    1  UNL1        0.1176
     17 N         140.2016  140.2262  164.5422 N.ar    1  UNL1       -0.2376
     18 C         140.6705  139.6566  165.8483 C.ar    1  UNL1        0.1357
     19 O         141.1988  139.9581  168.3742 O.3     1  UNL1       -0.4739
     20 C         139.1370  140.3450  169.9069 C.3     1  UNL1        0.0512
     21 C         140.6129  140.4550  169.6625 C.3     1  UNL1        0.2056
     22 C         139.6815  144.2701  159.8635 C.3     1  UNL1        0.0624
     23 C         140.1066  145.6960  159.6735 C.3     1  UNL1        0.0272
     24 C         140.2601  145.4540  158.2011 C.3     1  UNL1        0.0727
     25 C         139.8350  144.0282  158.3912 C.3     1  UNL1        0.0272
     26 N         140.6691  146.2912  157.0256 N.am    1  UNL1       -0.3024
     27 C         139.7384  146.4541  155.8607 C.2     1  UNL1        0.2473
     28 O         138.3985  145.7797  155.8711 O.2     1  UNL1       -0.2701
     29 H         141.5485  146.7338  157.0187 H       1  UNL1        0.1497
     30 C         140.1475  147.2913  154.6852 C.ar    1  UNL1        0.0724
     31 C         140.9652  146.6871  153.5824 C.ar    1  UNL1        0.0061
     32 C         141.3743  147.5242  152.4069 C.ar    1  UNL1        0.0018
     33 C         140.9656  148.9656  152.3342 C.ar    1  UNL1        0.0206
     34 C         140.1479  149.5699  153.4370 C.ar    1  UNL1        0.0991
     35 N         139.7392  151.0113  153.3643 N.ar    1  UNL1       -0.2407
     36 C         138.9215  151.6156  154.4671 C.ar    1  UNL1        0.1195
     37 C         138.5125  150.7784  155.6426 C.ar    1  UNL1        0.1195
     38 N         138.9211  149.3370  155.7153 N.ar    1  UNL1       -0.2405
     39 C         139.7388  148.7328  154.6125 C.ar    1  UNL1        0.1033
@<TRIPOS>BOND
     1    20    21    1
     2    21    19    1
     3    19    13    1
     4    13    14   ar
     5    14    15   ar
     6    15    16   ar
     7    16     1    1
     8     1     2   ar
     9     2     3   ar
    10     3     4   ar
    11    22     4    1
    12    22    23    1
    13    23    24    1
    14    24    26    1
    15    26    27   am
    16    27    28    2
    17    27    30    1
    18    30    31   ar
    19    31    32   ar
    20    32    33   ar
    21    33    34   ar
    22    34    35   ar
    23    35    36   ar
    24    36    37   ar
    25    37    38   ar
    26    38    39   ar
    27    24    25    1
    28     4     5   ar
    29     5     6    1
    30     6     7   ar
    31     7     8   ar
    32     8     9   ar
    33     9    10   ar
    34    10    11   ar
    35    11    12    1
    36    16    17   ar
    37    17    18   ar
    38    18    13   ar
    39     5     1   ar
    40    11     6   ar
    41    25    22    1
    42    39    30   ar
    43    39    34   ar
    44    26    29    1
@<TRIPOS>MOLECULE
*****
 39 44 0 0 0
SMALL
GASTEIGER

@<TRIPOS>ATOM
      1 C         141.4090  138.5965  164.9017 C.ar    1  UNL1        0.1879
      2 N         140.7512  137.3151  164.4832 N.ar    1  UNL1       -0.1271
      3 N         141.0484  137.0948  163.0295 N.ar    1  UNL1       -0.1330
      4 C         141.8899  138.2400  162.5496 C.ar    1  UNL1        0.1468
      5 N         142.1128  139.1681  163.7067 N.ar    1  UNL1       -0.2739
      6 C         142.9011  140.4439  163.6745 C.ar    1  UNL1        0.0939
      7 C         142.2143  141.7424  163.3710 C.ar    1  UNL1        0.0199
      8 C         143.0027  143.0181  163.3388 C.ar    1  UNL1        0.0016
      9 C         144.4778  142.9954  163.6102 C.ar    1  UNL1        0.0024
     10 C         145.1645  141.6968  163.9137 C.ar    1  UNL1        0.0311
     11 C         144.3762  140.4211  163.9459 C.ar    1  UNL1        0.1562
     12 F         145.0629  139.1226  164.2495 F       1  UNL1       -0.2026
     13 C         141.2918  140.4080  169.0193 C.ar    1  UNL1        0.1576
     14 C         140.0405  140.3371  168.1953 C.ar    1  UNL1        0.0402
     15 C         140.0796  139.7332  166.8227 C.ar    1  UNL1        0.0254
     16 C         141.3700  139.2003  166.2743 C.ar    1  UNL1        0.1176
     17 N         142.6214  139.2713  167.0983 N.ar    1  UNL1       -0.2376
     18 C         142.5823  139.8751  168.4709 C.ar    1  UNL1        0.1357
     19 O         141.2528  141.0118  170.3919 O.3     1  UNL1       -0.4739
     20 C         140.8573  143.5141  169.8158 C.3     1  UNL1        0.0512
     21 C         141.5963  142.4592  170.5845 C.3     1  UNL1        0.2056
     22 C         142.4162  138.4246  161.1572 C.3     1  UNL1        0.0624
     23 C         141.8297  138.3270  159.7801 C.3     1  UNL1        0.0272
     24 C         143.1604  138.6858  159.1879 C.3     1  UNL1        0.0727
     25 C         143.7468  138.7834  160.5651 C.3     1  UNL1        0.0272
     26 N         143.6866  138.8704  157.7955 N.am    1  UNL1       -0.3024
     27 C         143.4808  140.1741  157.0826 C.2     1  UNL1        0.2473
     28 O         142.7487  141.2931  157.7623 O.2     1  UNL1       -0.2701
     29 H         144.1671  138.1360  157.3494 H       1  UNL1        0.1497
     30 C         144.0071  140.3587  155.6902 C.ar    1  UNL1        0.0724
     31 C         143.2432  139.8114  154.5210 C.ar    1  UNL1        0.0061
     32 C         143.7695  139.9961  153.1285 C.ar    1  UNL1        0.0018
     33 C         145.0595  140.7280  152.9052 C.ar    1  UNL1        0.0206
     34 C         145.8235  141.2754  154.0744 C.ar    1  UNL1        0.0991
     35 N         147.1135  142.0073  153.8511 N.ar    1  UNL1       -0.2407
     36 C         147.8774  142.5546  155.0203 C.ar    1  UNL1        0.1195
     37 C         147.3511  142.3699  156.4128 C.ar    1  UNL1        0.1195
     38 N         146.0611  141.6380  156.6361 N.ar    1  UNL1       -0.2405
     39 C         145.2972  141.0907  155.4669 C.ar    1  UNL1        0.1033
@<TRIPOS>BOND
     1    20    21    1
     2    21    19    1
     3    19    13    1
     4    13    14   ar
     5    14    15   ar
     6    15    16   ar
     7    16     1    1
     8     1     2   ar
     9     2     3   ar
    10     3     4   ar
    11    22     4    1
    12    22    23    1
    13    23    24    1
    14    24    26    1
    15    26    27   am
    16    27    28    2
    17    27    30    1
    18    30    31   ar
    19    31    32   ar
    20    32    33   ar
    21    33    34   ar
    22    34    35   ar
    23    35    36   ar
    24    36    37   ar
    25    37    38   ar
    26    38    39   ar
    27    24    25    1
    28     4     5   ar
    29     5     6    1
    30     6     7   ar
    31     7     8   ar
    32     8     9   ar
    33     9    10   ar
    34    10    11   ar
    35    11    12    1
    36    16    17   ar
    37    17    18   ar
    38    18    13   ar
    39     5     1   ar
    40    11     6   ar
    41    25    22    1
    42    39    30   ar
    43    39    34   ar
    44    26    29    1
@<TRIPOS>MOLECULE
*****
 39 44 0 0 0
SMALL
GASTEIGER

@<TRIPOS>ATOM
      1 C         140.9560  142.9684  164.7959 C.ar    1  UNL1        0.1879
      2 N         141.2510  144.2068  164.0026 N.ar    1  UNL1       -0.1271
      3 N         140.7301  144.0009  162.6111 N.ar    1  UNL1       -0.1330
      4 C         140.1131  142.6353  162.5444 C.ar    1  UNL1        0.1468
      5 N         140.2528  141.9971  163.8947 N.ar    1  UNL1       -0.2739
      6 C         139.7734  140.6281  164.2767 C.ar    1  UNL1        0.0939
      7 C         138.6032  140.4745  165.2025 C.ar    1  UNL1        0.0199
      8 C         138.1238  139.1054  165.5844 C.ar    1  UNL1        0.0016
      9 C         138.8146  137.8900  165.0407 C.ar    1  UNL1        0.0024
     10 C         139.9848  138.0436  164.1149 C.ar    1  UNL1        0.0311
     11 C         140.4642  139.4127  163.7330 C.ar    1  UNL1        0.1562
     12 F         141.6343  139.5664  162.8072 F       1  UNL1       -0.2026
     13 C         141.9979  142.2864  169.1202 C.ar    1  UNL1        0.1576
     14 C         143.0019  141.9784  168.0493 C.ar    1  UNL1        0.0402
     15 C         142.6546  142.2057  166.6078 C.ar    1  UNL1        0.0254
     16 C         141.3032  142.7411  166.2374 C.ar    1  UNL1        0.1176
     17 N         140.2991  143.0491  167.3083 N.ar    1  UNL1       -0.2376
     18 C         140.6464  142.8218  168.7498 C.ar    1  UNL1        0.1357
     19 O         142.3451  142.0591  170.5616 O.3     1  UNL1       -0.4739
     20 C         140.7536  140.0307  170.8819 C.3     1  UNL1        0.0512
     21 C         141.4328  141.2489  171.4341 C.3     1  UNL1        0.2056
     22 C         139.4696  142.0164  161.3390 C.3     1  UNL1        0.0624
     23 C         139.9456  141.1543  160.2076 C.3     1  UNL1        0.0272
     24 C         138.5595  141.1413  159.6344 C.3     1  UNL1        0.0727
     25 C         138.0836  142.0034  160.7659 C.3     1  UNL1        0.0272
     26 N         137.9159  140.5225  158.4291 N.am    1  UNL1       -0.3024
     27 C         137.5187  141.3826  157.2662 C.2     1  UNL1        0.2473
     28 O         137.7650  142.8617  157.3087 O.2     1  UNL1       -0.2701
     29 H         137.7543  139.5517  158.4012 H       1  UNL1        0.1497
     30 C         136.8751  140.7638  156.0609 C.ar    1  UNL1        0.0724
     31 C         135.6201  141.3572  155.4929 C.ar    1  UNL1        0.0061
     32 C         134.9765  140.7384  154.2876 C.ar    1  UNL1        0.0018
     33 C         135.5880  139.5261  153.6501 C.ar    1  UNL1        0.0206
     34 C         136.8431  138.9326  154.2181 C.ar    1  UNL1        0.0991
     35 N         137.4546  137.7203  153.5807 N.ar    1  UNL1       -0.2407
     36 C         138.7097  137.1268  154.1486 C.ar    1  UNL1        0.1195
     37 C         139.3532  137.7456  155.3540 C.ar    1  UNL1        0.1195
     38 N         138.7417  138.9579  155.9914 N.ar    1  UNL1       -0.2405
     39 C         137.4867  139.5514  155.4234 C.ar    1  UNL1        0.1033
@<TRIPOS>BOND
     1    20    21    1
     2    21    19    1
     3    19    13    1
     4    13    14   ar
     5    14    15   ar
     6    15    16   ar
     7    16     1    1
     8     1     2   ar
     9     2     3   ar
    10     3     4   ar
    11    22     4    1
    12    22    23    1
    13    23    24    1
    14    24    26    1
    15    26    27   am
    16    27    28    2
    17    27    30    1
    18    30    31   ar
    19    31    32   ar
    20    32    33   ar
    21    33    34   ar
    22    34    35   ar
    23    35    36   ar
    24    36    37   ar
    25    37    38   ar
    26    38    39   ar
    27    24    25    1
    28     4     5   ar
    29     5     6    1
    30     6     7   ar
    31     7     8   ar
    32     8     9   ar
    33     9    10   ar
    34    10    11   ar
    35    11    12    1
    36    16    17   ar
    37    17    18   ar
    38    18    13   ar
    39     5     1   ar
    40    11     6   ar
    41    25    22    1
    42    39    30   ar
    43    39    34   ar
    44    26    29    1
@<TRIPOS>MOLECULE
*****
 39 44 0 0 0
SMALL
GASTEIGER

@<TRIPOS>ATOM
      1 C         143.3767  141.2584  164.9723 C.ar    1  UNL1        0.1879
      2 N         144.5923  140.7638  164.2458 N.ar    1  UNL1       -0.1271
      3 N         144.4350  141.1048  162.7936 N.ar    1  UNL1       -0.1330
      4 C         143.1223  141.8101  162.6225 C.ar    1  UNL1        0.1468
      5 N         142.4682  141.9050  163.9691 N.ar    1  UNL1       -0.2739
      6 C         141.1390  142.5357  164.2612 C.ar    1  UNL1        0.0939
      7 C         139.9345  141.6728  164.4950 C.ar    1  UNL1        0.0199
      8 C         138.6053  142.3037  164.7871 C.ar    1  UNL1        0.0016
      9 C         138.4805  143.7973  164.8453 C.ar    1  UNL1        0.0024
     10 C         139.6850  144.6602  164.6114 C.ar    1  UNL1        0.0311
     11 C         141.0142  144.0294  164.3194 C.ar    1  UNL1        0.1562
     12 F         142.2186  144.8923  164.0855 F       1  UNL1       -0.2026
     13 C         142.5930  140.8701  169.3865 C.ar    1  UNL1        0.1576
     14 C         142.3769  139.6947  168.4803 C.ar    1  UNL1        0.0402
     15 C         142.6382  139.8241  167.0088 C.ar    1  UNL1        0.0254
     16 C         143.1155  141.1290  166.4437 C.ar    1  UNL1        0.1176
     17 N         143.3316  142.3045  167.3501 N.ar    1  UNL1       -0.2376
     18 C         143.0704  142.1752  168.8215 C.ar    1  UNL1        0.1357
     19 O         142.3318  140.7408  170.8579 O.3     1  UNL1       -0.4739
     20 C         140.0544  141.9771  170.6725 C.3     1  UNL1        0.0512
     21 C         140.9688  141.0421  171.4070 C.3     1  UNL1        0.2056
     22 C         142.5619  142.3293  161.3316 C.3     1  UNL1        0.0624
     23 C         143.0977  143.1519  160.1975 C.3     1  UNL1        0.0272
     24 C         141.7695  143.0636  159.5060 C.3     1  UNL1        0.0727
     25 C         141.2339  142.2409  160.6401 C.3     1  UNL1        0.0272
     26 N         141.2092  143.5828  158.2151 N.am    1  UNL1       -0.3024
     27 C         140.2996  144.7754  158.2181 C.2     1  UNL1        0.2473
     28 O         139.9502  145.4490  159.5121 O.2     1  UNL1       -0.2701
     29 H         141.4385  143.1407  157.3658 H       1  UNL1        0.1497
     30 C         139.7392  145.2946  156.9272 C.ar    1  UNL1        0.0724
     31 C         140.2547  146.5789  156.3485 C.ar    1  UNL1        0.0061
     32 C         139.6944  147.0981  155.0576 C.ar    1  UNL1        0.0018
     33 C         138.6186  146.3331  154.3454 C.ar    1  UNL1        0.0206
     34 C         138.1031  145.0487  154.9240 C.ar    1  UNL1        0.0991
     35 N         137.0273  144.2836  154.2118 N.ar    1  UNL1       -0.2407
     36 C         136.5119  142.9994  154.7905 C.ar    1  UNL1        0.1195
     37 C         137.0722  142.4802  156.0814 C.ar    1  UNL1        0.1195
     38 N         138.1480  143.2452  156.7936 N.ar    1  UNL1       -0.2405
     39 C         138.6634  144.5295  156.2150 C.ar    1  UNL1        0.1033
@<TRIPOS>BOND
     1    20    21    1
     2    21    19    1
     3    19    13    1
     4    13    14   ar
     5    14    15   ar
     6    15    16   ar
     7    16     1    1
     8     1     2   ar
     9     2     3   ar
    10     3     4   ar
    11    22     4    1
    12    22    23    1
    13    23    24    1
    14    24    26    1
    15    26    27   am
    16    27    28    2
    17    27    30    1
    18    30    31   ar
    19    31    32   ar
    20    32    33   ar
    21    33    34   ar
    22    34    35   ar
    23    35    36   ar
    24    36    37   ar
    25    37    38   ar
    26    38    39   ar
    27    24    25    1
    28     4     5   ar
    29     5     6    1
    30     6     7   ar
    31     7     8   ar
    32     8     9   ar
    33     9    10   ar
    34    10    11   ar
    35    11    12    1
    36    16    17   ar
    37    17    18   ar
    38    18    13   ar
    39     5     1   ar
    40    11     6   ar
    41    25    22    1
    42    39    30   ar
    43    39    34   ar
    44    26    29    1
@<TRIPOS>MOLECULE
*****
 39 44 0 0 0
SMALL
GASTEIGER

@<TRIPOS>ATOM
      1 C         139.6340  141.6619  164.6072 C.ar    1  UNL1        0.1879
      2 N         138.3261  141.9313  163.9241 N.ar    1  UNL1       -0.1271
      3 N         138.5668  141.9261  162.4435 N.ar    1  UNL1       -0.1330
      4 C         140.0235  141.6536  162.2116 C.ar    1  UNL1        0.1468
      5 N         140.6831  141.4903  163.5489 N.ar    1  UNL1       -0.2739
      6 C         142.1366  141.2055  163.7862 C.ar    1  UNL1        0.0939
      7 C         142.6567  139.8043  163.6593 C.ar    1  UNL1        0.0199
      8 C         144.1102  139.5195  163.8966 C.ar    1  UNL1        0.0016
      9 C         145.0435  140.6358  164.2609 C.ar    1  UNL1        0.0024
     10 C         144.5234  142.0370  164.3879 C.ar    1  UNL1        0.0311
     11 C         143.0699  142.3218  164.1505 C.ar    1  UNL1        0.1562
     12 F         142.5497  143.7230  164.2775 F       1  UNL1       -0.2026
     13 C         140.2948  141.4126  169.0515 C.ar    1  UNL1        0.1576
     14 C         140.6795  142.6552  168.3047 C.ar    1  UNL1        0.0402
     15 C         140.4592  142.7383  166.8232 C.ar    1  UNL1        0.0254
     16 C         139.8543  141.5788  166.0887 C.ar    1  UNL1        0.1176
     17 N         139.4696  140.3361  166.8355 N.ar    1  UNL1       -0.2376
     18 C         139.6898  140.2529  168.3169 C.ar    1  UNL1        0.1357
     19 O         140.5151  141.3294  170.5329 O.3     1  UNL1       -0.4739
     20 C         142.8630  140.2322  170.3514 C.3     1  UNL1        0.0512
     21 C         141.8985  141.1243  171.0751 C.3     1  UNL1        0.2056
     22 C         140.7016  141.5607  160.8769 C.3     1  UNL1        0.0624
     23 C         140.4917  140.7460  159.6350 C.3     1  UNL1        0.0272
     24 C         141.6605  141.4294  158.9893 C.3     1  UNL1        0.0727
     25 C         141.8704  142.2440  160.2312 C.3     1  UNL1        0.0272
     26 N         142.3386  141.3365  157.6545 N.am    1  UNL1       -0.3024
     27 C         143.4664  140.3684  157.4519 C.2     1  UNL1        0.2473
     28 O         143.9161  139.4932  158.5841 O.2     1  UNL1       -0.2701
     29 H         142.0435  141.9109  156.9114 H       1  UNL1        0.1497
     30 C         144.1444  140.2755  156.1172 C.ar    1  UNL1        0.0724
     31 C         143.5468  139.4333  155.0293 C.ar    1  UNL1        0.0061
     32 C         144.2249  139.3404  153.6946 C.ar    1  UNL1        0.0018
     33 C         145.5006  140.0897  153.4476 C.ar    1  UNL1        0.0206
     34 C         146.0983  140.9320  154.5355 C.ar    1  UNL1        0.0991
     35 N         147.3740  141.6814  154.2886 N.ar    1  UNL1       -0.2407
     36 C         147.9716  142.5236  155.3764 C.ar    1  UNL1        0.1195
     37 C         147.2935  142.6165  156.7112 C.ar    1  UNL1        0.1195
     38 N         146.0178  141.8672  156.9581 N.ar    1  UNL1       -0.2405
     39 C         145.4202  141.0249  155.8703 C.ar    1  UNL1        0.1033
@<TRIPOS>BOND
     1    20    21    1
     2    21    19    1
     3    19    13    1
     4    13    14   ar
     5    14    15   ar
     6    15    16   ar
     7    16     1    1
     8     1     2   ar
     9     2     3   ar
    10     3     4   ar
    11    22     4    1
    12    22    23    1
    13    23    24    1
    14    24    26    1
    15    26    27   am
    16    27    28    2
    17    27    30    1
    18    30    31   ar
    19    31    32   ar
    20    32    33   ar
    21    33    34   ar
    22    34    35   ar
    23    35    36   ar
    24    36    37   ar
    25    37    38   ar
    26    38    39   ar
    27    24    25    1
    28     4     5   ar
    29     5     6    1
    30     6     7   ar
    31     7     8   ar
    32     8     9   ar
    33     9    10   ar
    34    10    11   ar
    35    11    12    1
    36    16    17   ar
    37    17    18   ar
    38    18    13   ar
    39     5     1   ar
    40    11     6   ar
    41    25    22    1
    42    39    30   ar
    43    39    34   ar
    44    26    29    1
@<TRIPOS>MOLECULE
*****
 39 44 0 0 0
SMALL
GASTEIGER

@<TRIPOS>ATOM
      1 C         143.6219  140.3301  164.5038 C.ar    1  UNL1        0.1879
      2 N         144.9972  140.6639  164.0065 N.ar    1  UNL1       -0.1271
      3 N         145.0787  140.2614  162.5638 N.ar    1  UNL1       -0.1330
      4 C         143.7539  139.6790  162.1694 C.ar    1  UNL1        0.1468
      5 N         142.8536  139.7215  163.3684 N.ar    1  UNL1       -0.2739
      6 C         141.4340  139.2398  163.4225 C.ar    1  UNL1        0.0939
      7 C         141.1427  137.7697  163.4858 C.ar    1  UNL1        0.0199
      8 C         139.7231  137.2882  163.5399 C.ar    1  UNL1        0.0016
      9 C         138.5949  138.2766  163.5308 C.ar    1  UNL1        0.0024
     10 C         138.8862  139.7467  163.4675 C.ar    1  UNL1        0.0311
     11 C         140.3058  140.2282  163.4134 C.ar    1  UNL1        0.1562
     12 F         140.5971  141.6983  163.3501 F       1  UNL1       -0.2026
     13 C         142.0731  141.0319  168.6701 C.ar    1  UNL1        0.1576
     14 C         142.2084  142.1819  167.7167 C.ar    1  UNL1        0.0402
     15 C         142.7247  141.9480  166.3279 C.ar    1  UNL1        0.0254
     16 C         143.1057  140.5640  165.8926 C.ar    1  UNL1        0.1176
     17 N         142.9704  139.4140  166.8460 N.ar    1  UNL1       -0.2376
     18 C         142.4541  139.6478  168.2348 C.ar    1  UNL1        0.1357
     19 O         141.5569  141.2658  170.0589 O.3     1  UNL1       -0.4739
     20 C         139.6977  142.9507  170.7330 C.3     1  UNL1        0.0512
     21 C         141.1447  142.6441  170.4836 C.3     1  UNL1        0.2056
     22 C         143.3928  139.1474  160.8140 C.3     1  UNL1        0.0624
     23 C         143.1825  139.7540  159.4584 C.3     1  UNL1        0.0272
     24 C         142.8822  138.3957  158.8972 C.3     1  UNL1        0.0727
     25 C         143.0925  137.7892  160.2529 C.3     1  UNL1        0.0272
     26 N         142.5211  137.8641  157.5419 N.am    1  UNL1       -0.3024
     27 C         141.0800  137.6861  157.1656 C.2     1  UNL1        0.2473
     28 O         140.0000  138.0397  158.1446 O.2     1  UNL1       -0.2701
     29 H         143.2299  137.6320  156.8993 H       1  UNL1        0.1497
     30 C         140.7189  137.1545  155.8102 C.ar    1  UNL1        0.0724
     31 C         139.7120  137.8769  154.9651 C.ar    1  UNL1        0.0061
     32 C         139.3509  137.3454  153.6097 C.ar    1  UNL1        0.0018
     33 C         139.9967  136.0914  153.0994 C.ar    1  UNL1        0.0206
     34 C         141.0037  135.3689  153.9445 C.ar    1  UNL1        0.0991
     35 N         141.6495  134.1149  153.4343 N.ar    1  UNL1       -0.2407
     36 C         142.6563  133.3925  154.2794 C.ar    1  UNL1        0.1195
     37 C         143.0174  133.9241  155.6348 C.ar    1  UNL1        0.1195
     38 N         142.3717  135.1780  156.1450 N.ar    1  UNL1       -0.2405
     39 C         141.3648  135.9005  155.2999 C.ar    1  UNL1        0.1033
@<TRIPOS>BOND
     1    20    21    1
     2    21    19    1
     3    19    13    1
     4    13    14   ar
     5    14    15   ar
     6    15    16   ar
     7    16     1    1
     8     1     2   ar
     9     2     3   ar
    10     3     4   ar
    11    22     4    1
    12    22    23    1
    13    23    24    1
    14    24    26    1
    15    26    27   am
    16    27    28    2
    17    27    30    1
    18    30    31   ar
    19    31    32   ar
    20    32    33   ar
    21    33    34   ar
    22    34    35   ar
    23    35    36   ar
    24    36    37   ar
    25    37    38   ar
    26    38    39   ar
    27    24    25    1
    28     4     5   ar
    29     5     6    1
    30     6     7   ar
    31     7     8   ar
    32     8     9   ar
    33     9    10   ar
    34    10    11   ar
    35    11    12    1
    36    16    17   ar
    37    17    18   ar
    38    18    13   ar
    39     5     1   ar
    40    11     6   ar
    41    25    22    1
    42    39    30   ar
    43    39    34   ar
    44    26    29    1
