@<TRIPOS>MOLECULE
*****
 42 45 0 0 0
SMALL
GASTEIGER

@<TRIPOS>ATOM
      1 C         137.3552  137.8394  161.3519 C.3     1  UNL1        0.0949
      2 C         137.7803  139.2766  161.2906 C.2     1  UNL1        0.2269
      3 O         137.6785  140.0343  160.0000 O.2     1  UNL1       -0.2748
      4 N         138.3072  139.9560  162.5197 N.am    1  UNL1       -0.2655
      5 C         138.4659  139.3302  163.8736 C.3     1  UNL1        0.1206
      6 C         139.0247  140.3680  164.8014 C.ar    1  UNL1       -0.0030
      7 C         139.3877  140.3228  166.2561 C.ar    1  UNL1        0.0155
      8 C         139.9373  141.5448  166.9302 C.ar    1  UNL1        0.1054
      9 C         140.1240  142.8121  166.1497 C.ar    1  UNL1        0.0181
     10 C         139.7610  142.8573  164.6950 C.ar    1  UNL1       -0.0011
     11 C         139.2114  141.6352  164.0208 C.ar    1  UNL1        0.0022
     12 C         138.7679  141.3806  162.6107 C.3     1  UNL1        0.1750
     13 C         138.7826  142.3759  161.4885 C.2     1  UNL1        0.2485
     14 O         137.6976  143.4064  161.3857 O.2     1  UNL1       -0.2726
     15 N         139.8826  142.3407  160.4691 N.am    1  UNL1       -0.2823
     16 H         140.5948  141.6643  160.5366 H       1  UNL1        0.1549
     17 C         139.8973  143.3360  159.3470 C.ar    1  UNL1        0.0503
     18 C         139.1312  143.0578  158.0877 C.ar    1  UNL1        0.0144
     19 C         139.1459  144.0531  156.9655 C.ar    1  UNL1       -0.0002
     20 C         139.9267  145.3265  157.1028 C.ar    1  UNL1        0.0182
     21 C         140.6927  145.6046  158.3621 C.ar    1  UNL1       -0.0002
     22 C         140.6780  144.6093  159.4842 C.ar    1  UNL1        0.0144
     23 C         139.9415  146.3218  155.9806 C.3     1  UNL1        0.2827
     24 O         139.3675  147.3623  156.8961 O.3     1  UNL1       -0.3692
     25 H         139.2527  148.1934  156.4093 H       1  UNL1        0.2112
     26 C         139.9562  147.3173  154.8586 C.3     1  UNL1        0.4311
     27 F         139.9709  148.3127  153.7366 F       1  UNL1       -0.1669
     28 F         138.4571  147.3634  154.8799 F       1  UNL1       -0.1669
     29 F         140.8359  147.3618  154.7654 F       1  UNL1       -0.1669
     30 C         140.5155  145.2814  155.0652 C.3     1  UNL1        0.4311
     31 F         141.0894  144.2411  154.1498 F       1  UNL1       -0.1669
     32 F         139.3969  144.9794  154.1124 F       1  UNL1       -0.1669
     33 F         141.3163  145.2369  155.4410 F       1  UNL1       -0.1669
     34 S         140.3003  141.4996  168.3850 S.O2    1  UNL1        0.0097
     35 O         139.2683  140.4345  168.6095 O.2     1  UNL1       -0.1686
     36 O         141.3323  142.5648  168.1605 O.2     1  UNL1       -0.1686
     37 C         140.6633  141.4545  169.8396 C.3     1  UNL1        0.1698
     38 C         142.0498  141.0600  170.2548 C.3     1  UNL1        0.1017
     39 C         143.2443  140.1990  170.5404 C.3     1  UNL1        0.0169
     40 C         141.9788  139.5793  170.0258 C.3     1  UNL1        0.0169
     41 C         142.6021  142.4038  170.6279 C.1     1  UNL1        0.0728
     42 N         143.1543  143.7476  171.0011 N.1     1  UNL1       -0.1959
@<TRIPOS>BOND
     1     1     2    1
     2     2     3    2
     3     2     4   am
     4     4     5    1
     5     5     6    1
     6     6     7   ar
     7     7     8   ar
     8     8    34    1
     9    34    35    2
    10    34    36    2
    11    34    37    1
    12    37    38    1
    13    38    41    1
    14    41    42    3
    15    38    39    1
    16    39    40    1
    17     8     9   ar
    18     9    10   ar
    19    10    11   ar
    20    11    12    1
    21    12    13    1
    22    13    14    2
    23    13    15   am
    24    15    17    1
    25    17    18   ar
    26    18    19   ar
    27    19    20   ar
    28    20    23    1
    29    23    24    1
    30    23    26    1
    31    26    27    1
    32    26    28    1
    33    26    29    1
    34    23    30    1
    35    30    31    1
    36    30    32    1
    37    30    33    1
    38    20    21   ar
    39    21    22   ar
    40    12     4    1
    41    22    17   ar
    42    11     6   ar
    43    40    38    1
    44    15    16    1
    45    24    25    1
@<TRIPOS>MOLECULE
*****
 42 45 0 0 0
SMALL
GASTEIGER

@<TRIPOS>ATOM
      1 C         146.4263  142.0922  156.4152 C.3     1  UNL1        0.0949
      2 C         145.4624  141.0173  156.8219 C.2     1  UNL1        0.2269
      3 O         145.4959  139.6823  156.1389 O.2     1  UNL1       -0.2748
      4 N         144.4650  141.2774  157.9117 N.am    1  UNL1       -0.2655
      5 C         144.3134  142.5560  158.6813 C.3     1  UNL1        0.1206
      6 C         143.1988  142.3734  159.6685 C.ar    1  UNL1       -0.0030
      7 C         142.6037  143.2944  160.6920 C.ar    1  UNL1        0.0155
      8 C         141.4714  142.8239  161.5560 C.ar    1  UNL1        0.1054
      9 C         140.9342  141.4325  161.3964 C.ar    1  UNL1        0.0181
     10 C         141.5293  140.5116  160.3729 C.ar    1  UNL1       -0.0011
     11 C         142.6616  140.9820  159.5089 C.ar    1  UNL1        0.0022
     12 C         143.4442  140.3047  158.4232 C.3     1  UNL1        0.1750
     13 C         143.2415  138.9010  157.9348 C.2     1  UNL1        0.2485
     14 O         143.3542  137.7506  158.8906 O.2     1  UNL1       -0.2726
     15 N         142.9261  138.6477  156.4902 N.am    1  UNL1       -0.2823
     16 H         142.8522  139.4027  155.8628 H       1  UNL1        0.1549
     17 C         142.7234  137.2440  156.0018 C.ar    1  UNL1        0.0503
     18 C         141.3353  136.7178  155.7867 C.ar    1  UNL1        0.0144
     19 C         141.1326  135.3142  155.2982 C.ar    1  UNL1       -0.0002
     20 C         142.3181  134.4367  155.0249 C.ar    1  UNL1        0.0182
     21 C         143.7062  134.9629  155.2400 C.ar    1  UNL1       -0.0002
     22 C         143.9089  136.3666  155.7285 C.ar    1  UNL1        0.0144
     23 C         142.1154  133.0330  154.5365 C.3     1  UNL1        0.2827
     24 O         141.6736  133.5606  153.2037 O.3     1  UNL1       -0.3692
     25 H         141.4548  132.8186  152.6185 H       1  UNL1        0.2112
     26 C         141.9128  131.6293  154.0479 C.3     1  UNL1        0.4311
     27 F         141.7102  130.2256  153.5594 F       1  UNL1       -0.1669
     28 F         143.0434  131.8038  153.0776 F       1  UNL1       -0.1669
     29 F         141.2356  131.4260  154.5814 F       1  UNL1       -0.1669
     30 C         142.5573  132.5053  155.8692 C.3     1  UNL1        0.4311
     31 F         142.9992  131.9777  157.2019 F       1  UNL1       -0.1669
     32 F         143.8924  131.8817  155.5882 F       1  UNL1       -0.1669
     33 F         141.8474  132.7669  156.3297 F       1  UNL1       -0.1669
     34 S         140.8762  143.7449  162.5795 S.O2    1  UNL1        0.0097
     35 O         140.9141  142.6413  163.5946 O.2     1  UNL1       -0.1686
     36 O         140.8383  144.8485  161.5644 O.2     1  UNL1       -0.1686
     37 C         140.2810  144.6659  163.6030 C.3     1  UNL1        0.1698
     38 C         138.8908  144.4237  164.1117 C.3     1  UNL1        0.1017
     39 C         137.7194  144.3835  165.0478 C.3     1  UNL1        0.0169
     40 C         139.0381  144.9212  165.5191 C.3     1  UNL1        0.0169
     41 C         138.2608  143.8420  162.8810 C.1     1  UNL1        0.0728
     42 N         137.6307  143.2605  161.6502 N.1     1  UNL1       -0.1959
@<TRIPOS>BOND
     1     1     2    1
     2     2     3    2
     3     2     4   am
     4     4     5    1
     5     5     6    1
     6     6     7   ar
     7     7     8   ar
     8     8    34    1
     9    34    35    2
    10    34    36    2
    11    34    37    1
    12    37    38    1
    13    38    41    1
    14    41    42    3
    15    38    39    1
    16    39    40    1
    17     8     9   ar
    18     9    10   ar
    19    10    11   ar
    20    11    12    1
    21    12    13    1
    22    13    14    2
    23    13    15   am
    24    15    17    1
    25    17    18   ar
    26    18    19   ar
    27    19    20   ar
    28    20    23    1
    29    23    24    1
    30    23    26    1
    31    26    27    1
    32    26    28    1
    33    26    29    1
    34    23    30    1
    35    30    31    1
    36    30    32    1
    37    30    33    1
    38    20    21   ar
    39    21    22   ar
    40    12     4    1
    41    22    17   ar
    42    11     6   ar
    43    40    38    1
    44    15    16    1
    45    24    25    1
@<TRIPOS>MOLECULE
*****
 42 45 0 0 0
SMALL
GASTEIGER

@<TRIPOS>ATOM
      1 C         141.4311  144.9159  159.1269 C.3     1  UNL1        0.0949
      2 C         141.6006  143.8131  160.1294 C.2     1  UNL1        0.2269
      3 O         141.5490  144.1191  161.5969 O.2     1  UNL1       -0.2748
      4 N         141.8215  142.4042  159.6643 N.am    1  UNL1       -0.2655
      5 C         141.8963  141.9483  158.2373 C.3     1  UNL1        0.1206
      6 C         142.1275  140.4662  158.2356 C.ar    1  UNL1       -0.0030
      7 C         142.2848  139.4761  157.1199 C.ar    1  UNL1        0.0155
      8 C         142.5102  138.0260  157.4302 C.ar    1  UNL1        0.1054
      9 C         142.5783  137.5660  158.8563 C.ar    1  UNL1        0.0181
     10 C         142.4210  138.5560  159.9720 C.ar    1  UNL1       -0.0011
     11 C         142.1956  140.0061  159.6617 C.ar    1  UNL1        0.0022
     12 C         142.0065  141.2039  160.5447 C.3     1  UNL1        0.1750
     13 C         142.0030  141.2017  162.0447 C.2     1  UNL1        0.2485
     14 O         143.2968  141.1075  162.7976 O.2     1  UNL1       -0.2726
     15 N         140.7055  141.2937  162.7918 N.am    1  UNL1       -0.2823
     16 H         139.8562  141.3556  162.2976 H       1  UNL1        0.1549
     17 C         140.7019  141.2915  164.2918 C.ar    1  UNL1        0.0503
     18 C         140.5961  142.5853  165.0435 C.ar    1  UNL1        0.0144
     19 C         140.5926  142.5831  166.5435 C.ar    1  UNL1       -0.0002
     20 C         140.6949  141.2871  167.2917 C.ar    1  UNL1        0.0182
     21 C         140.8008  139.9934  166.5400 C.ar    1  UNL1       -0.0002
     22 C         140.8043  139.9956  165.0400 C.ar    1  UNL1        0.0144
     23 C         140.6914  141.2848  168.7917 C.3     1  UNL1        0.2827
     24 O         139.3995  140.5226  168.7875 O.3     1  UNL1       -0.3692
     25 H         139.1188  140.3569  169.7011 H       1  UNL1        0.2112
     26 C         140.6878  141.2825  170.2917 C.3     1  UNL1        0.4311
     27 F         140.6842  141.2801  171.7917 F       1  UNL1       -0.1669
     28 F         139.4286  142.0975  170.2900 F       1  UNL1       -0.1669
     29 F         141.4256  140.8046  170.4007 F       1  UNL1       -0.1669
     30 C         141.9833  142.0470  168.7960 C.3     1  UNL1        0.4311
     31 F         143.2751  142.8093  168.8003 F       1  UNL1       -0.1669
     32 F         141.6124  143.3868  169.3597 F       1  UNL1       -0.1669
     33 F         142.4891  141.4041  168.4565 F       1  UNL1       -0.1669
     34 S         142.6676  137.0359  156.3144 S.O2    1  UNL1        0.0097
     35 O         144.1311  137.3554  156.2371 O.2     1  UNL1       -0.1686
     36 O         141.2040  136.7164  156.3916 O.2     1  UNL1       -0.1686
     37 C         142.8248  136.0458  155.1986 C.3     1  UNL1        0.1698
     38 C         142.3794  134.6259  155.3875 C.3     1  UNL1        0.1017
     39 C         141.6898  133.3189  155.1304 C.3     1  UNL1        0.0169
     40 C         141.5215  134.4578  154.1687 C.3     1  UNL1        0.0169
     41 C         143.0827  134.3011  156.6720 C.1     1  UNL1        0.0728
     42 N         143.7861  133.9762  157.9564 N.1     1  UNL1       -0.1959
@<TRIPOS>BOND
     1     1     2    1
     2     2     3    2
     3     2     4   am
     4     4     5    1
     5     5     6    1
     6     6     7   ar
     7     7     8   ar
     8     8    34    1
     9    34    35    2
    10    34    36    2
    11    34    37    1
    12    37    38    1
    13    38    41    1
    14    41    42    3
    15    38    39    1
    16    39    40    1
    17     8     9   ar
    18     9    10   ar
    19    10    11   ar
    20    11    12    1
    21    12    13    1
    22    13    14    2
    23    13    15   am
    24    15    17    1
    25    17    18   ar
    26    18    19   ar
    27    19    20   ar
    28    20    23    1
    29    23    24    1
    30    23    26    1
    31    26    27    1
    32    26    28    1
    33    26    29    1
    34    23    30    1
    35    30    31    1
    36    30    32    1
    37    30    33    1
    38    20    21   ar
    39    21    22   ar
    40    12     4    1
    41    22    17   ar
    42    11     6   ar
    43    40    38    1
    44    15    16    1
    45    24    25    1
@<TRIPOS>MOLECULE
*****
 42 45 0 0 0
SMALL
GASTEIGER

@<TRIPOS>ATOM
      1 C         140.3552  145.3621  159.7800 C.3     1  UNL1        0.0949
      2 C         140.5156  143.8752  159.8961 C.2     1  UNL1        0.2269
      3 O         140.4008  143.0110  158.6755 O.2     1  UNL1       -0.2748
      4 N         140.7909  143.2527  161.2327 N.am    1  UNL1       -0.2655
      5 C         140.9313  143.9849  162.5343 C.3     1  UNL1        0.1206
      6 C         141.2013  142.9733  163.6085 C.ar    1  UNL1       -0.0030
      7 C         141.4264  143.1129  165.0849 C.ar    1  UNL1        0.0155
      8 C         141.6780  141.8950  165.9236 C.ar    1  UNL1        0.1054
      9 C         141.7043  140.5376  165.2859 C.ar    1  UNL1        0.0181
     10 C         141.4791  140.3980  163.8095 C.ar    1  UNL1       -0.0011
     11 C         141.2276  141.6159  162.9708 C.ar    1  UNL1        0.0022
     12 C         140.9740  141.7885  161.5025 C.3     1  UNL1        0.1750
     13 C         140.9139  140.6899  160.4830 C.2     1  UNL1        0.2485
     14 O         139.6981  139.8162  160.3926 O.2     1  UNL1       -0.2726
     15 N         142.0699  140.4650  159.5538 N.am    1  UNL1       -0.2823
     16 H         142.8680  141.0384  159.6132 H       1  UNL1        0.1549
     17 C         142.0099  139.3663  158.5343 C.ar    1  UNL1        0.0503
     18 C         142.6830  138.0536  158.8058 C.ar    1  UNL1        0.0144
     19 C         142.6230  136.9550  157.7863 C.ar    1  UNL1       -0.0002
     20 C         141.8899  137.1691  156.4954 C.ar    1  UNL1        0.0182
     21 C         141.2168  138.4818  156.2239 C.ar    1  UNL1       -0.0002
     22 C         141.2768  139.5805  157.2434 C.ar    1  UNL1        0.0144
     23 C         141.8299  136.0705  155.4758 C.3     1  UNL1        0.2827
     24 O         140.3399  136.0035  155.6358 O.3     1  UNL1       -0.3692
     25 H         139.9821  135.3193  155.0487 H       1  UNL1        0.2112
     26 C         141.7697  134.9719  154.4562 C.3     1  UNL1        0.4311
     27 F         141.7096  133.8733  153.4367 F       1  UNL1       -0.1669
     28 F         141.3441  134.0060  155.5221 F       1  UNL1       -0.1669
     29 F         142.0148  135.4589  153.7582 F       1  UNL1       -0.1669
     30 C         143.3198  136.1374  155.3158 C.3     1  UNL1        0.4311
     31 F         144.8097  136.2043  155.1557 F       1  UNL1       -0.1669
     32 F         143.8020  134.8229  155.8538 F       1  UNL1       -0.1669
     33 F         143.3535  136.9460  154.9559 F       1  UNL1       -0.1669
     34 S         141.9032  142.0345  167.4000 S.O2    1  UNL1        0.0097
     35 O         140.4636  141.6968  167.6516 O.2     1  UNL1       -0.1686
     36 O         143.3428  142.3723  167.1485 O.2     1  UNL1       -0.1686
     37 C         142.1284  142.1741  168.8764 C.3     1  UNL1        0.1698
     38 C         142.0173  140.9735  169.7689 C.3     1  UNL1        0.1017
     39 C         142.1616  139.5631  170.2587 C.3     1  UNL1        0.0169
     40 C         142.7143  139.9523  168.9196 C.3     1  UNL1        0.0169
     41 C         141.2817  141.5779  170.9280 C.1     1  UNL1        0.0728
     42 N         140.5462  142.1824  172.0872 N.1     1  UNL1       -0.1959
@<TRIPOS>BOND
     1     1     2    1
     2     2     3    2
     3     2     4   am
     4     4     5    1
     5     5     6    1
     6     6     7   ar
     7     7     8   ar
     8     8    34    1
     9    34    35    2
    10    34    36    2
    11    34    37    1
    12    37    38    1
    13    38    41    1
    14    41    42    3
    15    38    39    1
    16    39    40    1
    17     8     9   ar
    18     9    10   ar
    19    10    11   ar
    20    11    12    1
    21    12    13    1
    22    13    14    2
    23    13    15   am
    24    15    17    1
    25    17    18   ar
    26    18    19   ar
    27    19    20   ar
    28    20    23    1
    29    23    24    1
    30    23    26    1
    31    26    27    1
    32    26    28    1
    33    26    29    1
    34    23    30    1
    35    30    31    1
    36    30    32    1
    37    30    33    1
    38    20    21   ar
    39    21    22   ar
    40    12     4    1
    41    22    17   ar
    42    11     6   ar
    43    40    38    1
    44    15    16    1
    45    24    25    1
@<TRIPOS>MOLECULE
*****
 42 45 0 0 0
SMALL
GASTEIGER

@<TRIPOS>ATOM
      1 C         139.5917  146.6349  160.6575 C.3     1  UNL1        0.0949
      2 C         140.1422  145.4540  161.4008 C.2     1  UNL1        0.2269
      3 O         139.6820  145.1671  162.7993 O.2     1  UNL1       -0.2748
      4 N         141.1529  144.5601  160.7455 N.am    1  UNL1       -0.2655
      5 C         141.7048  144.7202  159.3600 C.3     1  UNL1        0.1206
      6 C         142.6822  143.6082  159.1189 C.ar    1  UNL1       -0.0030
      7 C         143.5314  143.2578  157.9331 C.ar    1  UNL1        0.0155
      8 C         144.4327  142.0599  157.9839 C.ar    1  UNL1        0.1054
      9 C         144.4849  141.2124  159.2205 C.ar    1  UNL1        0.0181
     10 C         143.6357  141.5628  160.4062 C.ar    1  UNL1       -0.0011
     11 C         142.7343  142.7607  160.3554 C.ar    1  UNL1        0.0022
     12 C         141.7892  143.3490  161.3607 C.3     1  UNL1        0.1750
     13 C         141.5265  142.8192  162.7392 C.2     1  UNL1        0.2485
     14 O         140.7511  141.5479  162.9190 O.2     1  UNL1       -0.2726
     15 N         142.0392  143.5609  163.9381 N.am    1  UNL1       -0.2823
     16 H         142.5481  144.3954  163.8202 H       1  UNL1        0.1549
     17 C         141.7764  143.0311  165.3166 C.ar    1  UNL1        0.0503
     18 C         140.3822  143.0386  165.8699 C.ar    1  UNL1        0.0144
     19 C         140.1195  142.5088  167.2484 C.ar    1  UNL1       -0.0002
     20 C         141.2510  141.9716  168.0736 C.ar    1  UNL1        0.0182
     21 C         142.6452  141.9642  167.5203 C.ar    1  UNL1       -0.0002
     22 C         142.9080  142.4939  166.1418 C.ar    1  UNL1        0.0144
     23 C         140.9884  141.4418  169.4522 C.3     1  UNL1        0.2827
     24 O         141.4944  140.0941  169.0305 O.3     1  UNL1       -0.3692
     25 H         141.4433  139.4806  169.7801 H       1  UNL1        0.2112
     26 C         140.7258  140.9119  170.8307 C.3     1  UNL1        0.4311
     27 F         140.4632  140.3820  172.2092 F       1  UNL1       -0.1669
     28 F         139.6029  140.0741  170.2947 F       1  UNL1       -0.1669
     29 F         141.3650  141.3648  171.2440 F       1  UNL1       -0.1669
     30 C         140.4824  142.7895  169.8738 C.3     1  UNL1        0.4311
     31 F         139.9764  144.1371  170.2954 F       1  UNL1       -0.1669
     32 F         141.7199  143.6337  169.9516 F       1  UNL1       -0.1669
     33 F         139.6246  142.5735  169.9188 F       1  UNL1       -0.1669
     34 S         145.2820  141.7094  156.7982 S.O2    1  UNL1        0.0097
     35 O         146.4148  142.5065  157.3739 O.2     1  UNL1       -0.1686
     36 O         144.1492  140.9124  156.2225 O.2     1  UNL1       -0.1686
     37 C         146.1312  141.3590  155.6124 C.3     1  UNL1        0.1698
     38 C         146.8286  142.4415  154.8431 C.3     1  UNL1        0.1017
     39 C         147.0299  143.6567  153.9871 C.3     1  UNL1        0.0169
     40 C         145.6420  143.1994  154.3261 C.3     1  UNL1        0.0169
     41 C         148.2574  142.0594  155.0931 C.1     1  UNL1        0.0728
     42 N         149.6863  141.6773  155.3432 N.1     1  UNL1       -0.1959
@<TRIPOS>BOND
     1     1     2    1
     2     2     3    2
     3     2     4   am
     4     4     5    1
     5     5     6    1
     6     6     7   ar
     7     7     8   ar
     8     8    34    1
     9    34    35    2
    10    34    36    2
    11    34    37    1
    12    37    38    1
    13    38    41    1
    14    41    42    3
    15    38    39    1
    16    39    40    1
    17     8     9   ar
    18     9    10   ar
    19    10    11   ar
    20    11    12    1
    21    12    13    1
    22    13    14    2
    23    13    15   am
    24    15    17    1
    25    17    18   ar
    26    18    19   ar
    27    19    20   ar
    28    20    23    1
    29    23    24    1
    30    23    26    1
    31    26    27    1
    32    26    28    1
    33    26    29    1
    34    23    30    1
    35    30    31    1
    36    30    32    1
    37    30    33    1
    38    20    21   ar
    39    21    22   ar
    40    12     4    1
    41    22    17   ar
    42    11     6   ar
    43    40    38    1
    44    15    16    1
    45    24    25    1
@<TRIPOS>MOLECULE
*****
 42 45 0 0 0
SMALL
GASTEIGER

@<TRIPOS>ATOM
      1 C         145.3141  141.3100  156.5146 C.3     1  UNL1        0.0949
      2 C         144.3572  140.1657  156.6721 C.2     1  UNL1        0.2269
      3 O         144.5996  138.8792  155.9398 O.2     1  UNL1       -0.2748
      4 N         143.1579  140.3078  157.5618 N.am    1  UNL1       -0.2655
      5 C         142.7868  141.5267  158.3532 C.3     1  UNL1        0.1206
      6 C         141.5187  141.2283  159.0968 C.ar    1  UNL1       -0.0030
      7 C         140.6864  142.0531  160.0333 C.ar    1  UNL1        0.0155
      8 C         139.4416  141.4744  160.6378 C.ar    1  UNL1        0.1054
      9 C         139.0290  140.0710  160.3059 C.ar    1  UNL1        0.0181
     10 C         139.8613  139.2462  159.3695 C.ar    1  UNL1       -0.0011
     11 C         141.1062  139.8248  158.7649 C.ar    1  UNL1        0.0022
     12 C         142.1193  139.2560  157.8162 C.3     1  UNL1        0.1750
     13 C         142.0975  137.8773  157.2257 C.2     1  UNL1        0.2485
     14 O         140.9234  137.4310  156.4059 O.2     1  UNL1       -0.2726
     15 N         143.2500  136.9449  157.4549 N.am    1  UNL1       -0.2823
     16 H         144.0206  137.2378  157.9929 H       1  UNL1        0.1549
     17 C         143.2282  135.5662  156.8643 C.ar    1  UNL1        0.0503
     18 C         143.1001  135.3878  155.3805 C.ar    1  UNL1        0.0144
     19 C         143.0783  134.0091  154.7899 C.ar    1  UNL1       -0.0002
     20 C         143.1846  132.8089  155.6832 C.ar    1  UNL1        0.0182
     21 C         143.3127  132.9872  157.1671 C.ar    1  UNL1       -0.0002
     22 C         143.3345  134.3659  157.7576 C.ar    1  UNL1        0.0144
     23 C         143.1628  131.4301  155.0927 C.3     1  UNL1        0.2827
     24 O         144.6267  131.2821  155.3847 O.3     1  UNL1       -0.3692
     25 H         144.9290  130.4095  155.0877 H       1  UNL1        0.2112
     26 C         143.1411  130.0514  154.5023 C.3     1  UNL1        0.4311
     27 F         143.1194  128.6727  153.9118 F       1  UNL1       -0.1669
     28 F         144.0469  130.5100  153.3981 F       1  UNL1       -0.1669
     29 F         142.6087  129.6834  155.1070 F       1  UNL1       -0.1669
     30 C         141.6990  131.5782  154.8008 C.3     1  UNL1        0.4311
     31 F         140.2352  131.7263  154.5088 F       1  UNL1       -0.1669
     32 F         141.6358  131.6824  153.3057 F       1  UNL1       -0.1669
     33 F         141.4178  131.5475  155.6401 F       1  UNL1       -0.1669
     34 S         138.6092  142.2992  161.5743 S.O2    1  UNL1        0.0097
     35 O         137.9780  142.9920  160.4032 O.2     1  UNL1       -0.1686
     36 O         139.2404  141.6065  162.7454 O.2     1  UNL1       -0.1686
     37 C         137.7769  143.1240  162.5108 C.3     1  UNL1        0.1698
     38 C         138.4348  144.1182  163.4212 C.3     1  UNL1        0.1017
     39 C         138.8821  144.7922  164.6844 C.3     1  UNL1        0.0169
     40 C         138.0568  143.5414  164.7532 C.3     1  UNL1        0.0169
     41 C         139.0412  145.0402  162.4052 C.1     1  UNL1        0.0728
     42 N         139.6475  145.9623  161.3893 N.1     1  UNL1       -0.1959
@<TRIPOS>BOND
     1     1     2    1
     2     2     3    2
     3     2     4   am
     4     4     5    1
     5     5     6    1
     6     6     7   ar
     7     7     8   ar
     8     8    34    1
     9    34    35    2
    10    34    36    2
    11    34    37    1
    12    37    38    1
    13    38    41    1
    14    41    42    3
    15    38    39    1
    16    39    40    1
    17     8     9   ar
    18     9    10   ar
    19    10    11   ar
    20    11    12    1
    21    12    13    1
    22    13    14    2
    23    13    15   am
    24    15    17    1
    25    17    18   ar
    26    18    19   ar
    27    19    20   ar
    28    20    23    1
    29    23    24    1
    30    23    26    1
    31    26    27    1
    32    26    28    1
    33    26    29    1
    34    23    30    1
    35    30    31    1
    36    30    32    1
    37    30    33    1
    38    20    21   ar
    39    21    22   ar
    40    12     4    1
    41    22    17   ar
    42    11     6   ar
    43    40    38    1
    44    15    16    1
    45    24    25    1
@<TRIPOS>MOLECULE
*****
 42 45 0 0 0
SMALL
GASTEIGER

@<TRIPOS>ATOM
      1 C         139.2681  137.1532  154.7038 C.3     1  UNL1        0.0949
      2 C         139.8933  137.6546  155.9718 C.2     1  UNL1        0.2269
      3 O         139.2405  137.3722  157.2924 O.2     1  UNL1       -0.2748
      4 N         141.1712  138.4382  155.9191 N.am    1  UNL1       -0.2655
      5 C         141.9353  138.7966  154.6791 C.3     1  UNL1        0.1206
      6 C         143.1457  139.5810  155.0908 C.ar    1  UNL1       -0.0030
      7 C         144.2604  140.1964  154.2979 C.ar    1  UNL1        0.0155
      8 C         145.3591  140.9383  154.9996 C.ar    1  UNL1        0.1054
      9 C         145.3432  141.0647  156.4941 C.ar    1  UNL1        0.0181
     10 C         144.2285  140.4493  157.2870 C.ar    1  UNL1       -0.0011
     11 C         143.1298  139.7074  156.5854 C.ar    1  UNL1        0.0022
     12 C         141.9095  139.0012  157.0973 C.3     1  UNL1        0.1750
     13 C         141.4994  138.8793  158.5350 C.2     1  UNL1        0.2485
     14 O         142.3194  138.0535  159.4814 O.2     1  UNL1       -0.2726
     15 N         140.2693  139.5832  159.0264 N.am    1  UNL1       -0.2823
     16 H         139.7311  140.1252  158.4052 H       1  UNL1        0.1549
     17 C         139.8593  139.4613  160.4641 C.ar    1  UNL1        0.0503
     18 C         138.8543  138.4252  160.8721 C.ar    1  UNL1        0.0144
     19 C         138.4442  138.3033  162.3098 C.ar    1  UNL1       -0.0002
     20 C         139.0392  139.2176  163.3394 C.ar    1  UNL1        0.0182
     21 C         140.0442  140.2536  162.9314 C.ar    1  UNL1       -0.0002
     22 C         140.4543  140.3755  161.4937 C.ar    1  UNL1        0.0144
     23 C         138.6293  139.0957  164.7772 C.3     1  UNL1        0.2827
     24 O         137.7044  140.2652  164.6125 O.3     1  UNL1       -0.3692
     25 H         137.2551  140.4430  165.4535 H       1  UNL1        0.2112
     26 C         138.2192  138.9740  166.2149 C.3     1  UNL1        0.4311
     27 F         137.8092  138.8522  167.6527 F       1  UNL1       -0.1669
     28 F         138.9254  140.2604  166.5253 F       1  UNL1       -0.1669
     29 F         137.7758  138.2112  166.1365 F       1  UNL1       -0.1669
     30 C         139.5541  137.9263  164.9419 C.3     1  UNL1        0.4311
     31 F         140.4789  136.7569  165.1067 F       1  UNL1       -0.1669
     32 F         140.7947  138.5255  165.5351 F       1  UNL1       -0.1669
     33 F         139.0065  137.3093  164.6196 F       1  UNL1       -0.1669
     34 S         146.4738  141.5537  154.2066 S.O2    1  UNL1        0.0097
     35 O         145.6671  141.3984  152.9517 O.2     1  UNL1       -0.1686
     36 O         147.2806  141.7091  155.4616 O.2     1  UNL1       -0.1686
     37 C         147.5885  142.1692  153.4138 C.3     1  UNL1        0.1698
     38 C         147.7536  143.6598  153.3840 C.3     1  UNL1        0.1017
     39 C         147.4037  145.1179  153.4259 C.3     1  UNL1        0.0169
     40 C         146.3282  144.0836  153.5803 C.3     1  UNL1        0.0169
     41 C         149.2363  143.7536  153.1773 C.1     1  UNL1        0.0728
     42 N         150.7191  143.8473  152.9706 N.1     1  UNL1       -0.1959
@<TRIPOS>BOND
     1     1     2    1
     2     2     3    2
     3     2     4   am
     4     4     5    1
     5     5     6    1
     6     6     7   ar
     7     7     8   ar
     8     8    34    1
     9    34    35    2
    10    34    36    2
    11    34    37    1
    12    37    38    1
    13    38    41    1
    14    41    42    3
    15    38    39    1
    16    39    40    1
    17     8     9   ar
    18     9    10   ar
    19    10    11   ar
    20    11    12    1
    21    12    13    1
    22    13    14    2
    23    13    15   am
    24    15    17    1
    25    17    18   ar
    26    18    19   ar
    27    19    20   ar
    28    20    23    1
    29    23    24    1
    30    23    26    1
    31    26    27    1
    32    26    28    1
    33    26    29    1
    34    23    30    1
    35    30    31    1
    36    30    32    1
    37    30    33    1
    38    20    21   ar
    39    21    22   ar
    40    12     4    1
    41    22    17   ar
    42    11     6   ar
    43    40    38    1
    44    15    16    1
    45    24    25    1
@<TRIPOS>MOLECULE
*****
 42 45 0 0 0
SMALL
GASTEIGER

@<TRIPOS>ATOM
      1 C         146.2604  142.4919  156.3926 C.3     1  UNL1        0.0949
      2 C         145.1529  142.0252  157.2901 C.2     1  UNL1        0.2269
      3 O         144.7293  142.8660  158.4579 O.2     1  UNL1       -0.2748
      4 N         144.4690  140.7178  157.0199 N.am    1  UNL1       -0.2655
      5 C         144.7822  139.7746  155.8964 C.3     1  UNL1        0.1206
      6 C         143.8586  138.5979  156.0079 C.ar    1  UNL1       -0.0030
      7 C         143.7084  137.3578  155.1776 C.ar    1  UNL1        0.0155
      8 C         142.6742  136.3335  155.5399 C.ar    1  UNL1        0.1054
      9 C         141.7901  136.5495  156.7323 C.ar    1  UNL1        0.0181
     10 C         141.9404  137.7897  157.5625 C.ar    1  UNL1       -0.0011
     11 C         142.9746  138.8139  157.2003 C.ar    1  UNL1        0.0022
     12 C         143.3519  140.1241  157.8257 C.3     1  UNL1        0.1750
     13 C         142.7224  140.7334  159.0433 C.2     1  UNL1        0.2485
     14 O         143.1723  140.3121  160.4108 O.2     1  UNL1       -0.2726
     15 N         141.6430  141.7643  158.8934 N.am    1  UNL1       -0.2823
     16 H         141.3477  142.0408  157.9959 H       1  UNL1        0.1549
     17 C         141.0136  142.3737  160.1110 C.ar    1  UNL1        0.0503
     18 C         141.1545  143.8440  160.3719 C.ar    1  UNL1        0.0144
     19 C         140.5251  144.4534  161.5895 C.ar    1  UNL1       -0.0002
     20 C         139.7547  143.5923  162.5461 C.ar    1  UNL1        0.0182
     21 C         139.6138  142.1220  162.2851 C.ar    1  UNL1       -0.0002
     22 C         140.2432  141.5126  161.0675 C.ar    1  UNL1        0.0144
     23 C         139.1253  144.2017  163.7637 C.3     1  UNL1        0.2827
     24 O         137.9833  144.6957  162.9260 O.3     1  UNL1       -0.3692
     25 H         137.3533  145.1737  163.4877 H       1  UNL1        0.2112
     26 C         138.4957  144.8110  164.9812 C.3     1  UNL1        0.4311
     27 F         137.8662  145.4203  166.1988 F       1  UNL1       -0.1669
     28 F         137.3017  143.9193  164.8101 F       1  UNL1       -0.1669
     29 F         139.1502  145.3775  165.1691 F       1  UNL1       -0.1669
     30 C         140.2673  143.7076  164.6014 C.3     1  UNL1        0.4311
     31 F         141.4092  143.2136  165.4391 F       1  UNL1       -0.1669
     32 F         139.6562  142.6320  165.4499 F       1  UNL1       -0.1669
     33 F         140.8854  144.2495  164.2717 F       1  UNL1       -0.1669
     34 S         142.5239  135.0932  154.7096 S.O2    1  UNL1        0.0097
     35 O         141.0797  135.4244  154.4762 O.2     1  UNL1       -0.1686
     36 O         143.9681  134.7621  154.9430 O.2     1  UNL1       -0.1686
     37 C         142.3736  133.8530  153.8794 C.3     1  UNL1        0.1698
     38 C         141.6159  132.6763  154.4193 C.3     1  UNL1        0.1017
     39 C         140.6558  131.5255  154.4798 C.3     1  UNL1        0.0169
     40 C         140.7698  132.3421  153.2267 C.3     1  UNL1        0.0169
     41 C         142.1990  132.6021  155.7993 C.1     1  UNL1        0.0728
     42 N         142.7820  132.5279  157.1794 N.1     1  UNL1       -0.1959
@<TRIPOS>BOND
     1     1     2    1
     2     2     3    2
     3     2     4   am
     4     4     5    1
     5     5     6    1
     6     6     7   ar
     7     7     8   ar
     8     8    34    1
     9    34    35    2
    10    34    36    2
    11    34    37    1
    12    37    38    1
    13    38    41    1
    14    41    42    3
    15    38    39    1
    16    39    40    1
    17     8     9   ar
    18     9    10   ar
    19    10    11   ar
    20    11    12    1
    21    12    13    1
    22    13    14    2
    23    13    15   am
    24    15    17    1
    25    17    18   ar
    26    18    19   ar
    27    19    20   ar
    28    20    23    1
    29    23    24    1
    30    23    26    1
    31    26    27    1
    32    26    28    1
    33    26    29    1
    34    23    30    1
    35    30    31    1
    36    30    32    1
    37    30    33    1
    38    20    21   ar
    39    21    22   ar
    40    12     4    1
    41    22    17   ar
    42    11     6   ar
    43    40    38    1
    44    15    16    1
    45    24    25    1
@<TRIPOS>MOLECULE
*****
 42 45 0 0 0
SMALL
GASTEIGER

@<TRIPOS>ATOM
      1 C         139.5005  146.6286  161.4638 C.3     1  UNL1        0.0949
      2 C         140.2970  145.3979  161.1461 C.2     1  UNL1        0.2269
      3 O         140.8774  145.2133  159.7754 O.2     1  UNL1       -0.2748
      4 N         140.5132  144.3519  162.1992 N.am    1  UNL1       -0.2655
      5 C         139.9971  144.3980  163.6069 C.3     1  UNL1        0.1206
      6 C         140.4483  143.1507  164.3072 C.ar    1  UNL1       -0.0030
      7 C         140.2380  142.6533  165.7067 C.ar    1  UNL1        0.0155
      8 C         140.8227  141.3389  166.1312 C.ar    1  UNL1        0.1054
      9 C         141.6176  140.5217  165.1564 C.ar    1  UNL1        0.0181
     10 C         141.8279  141.0190  163.7569 C.ar    1  UNL1       -0.0011
     11 C         141.2433  142.3335  163.3324 C.ar    1  UNL1        0.0022
     12 C         141.2833  143.0759  162.0296 C.3     1  UNL1        0.1750
     13 C         141.9726  142.6220  160.7770 C.2     1  UNL1        0.2485
     14 O         141.5967  141.3142  160.1459 O.2     1  UNL1       -0.2726
     15 N         143.0379  143.4759  160.1555 N.am    1  UNL1       -0.2823
     16 H         143.2846  144.3343  160.5698 H       1  UNL1        0.1549
     17 C         143.7271  143.0220  158.9030 C.ar    1  UNL1        0.0503
     18 C         145.1789  142.6468  158.9397 C.ar    1  UNL1        0.0144
     19 C         145.8682  142.1929  157.6871 C.ar    1  UNL1       -0.0002
     20 C         145.1055  142.1142  156.3979 C.ar    1  UNL1        0.0182
     21 C         143.6537  142.4894  156.3612 C.ar    1  UNL1       -0.0002
     22 C         142.9644  142.9433  157.6138 C.ar    1  UNL1        0.0144
     23 C         145.7947  141.6603  155.1453 C.3     1  UNL1        0.2827
     24 O         146.0719  140.3297  155.7800 O.3     1  UNL1       -0.3692
     25 H         146.5518  139.7661  155.1532 H       1  UNL1        0.2112
     26 C         146.4839  141.2063  153.8927 C.3     1  UNL1        0.4311
     27 F         147.1731  140.7523  152.6402 F       1  UNL1       -0.1669
     28 F         145.4154  140.1756  153.6784 F       1  UNL1       -0.1669
     29 F         147.1598  141.7777  153.9282 F       1  UNL1       -0.1669
     30 C         145.5176  142.9908  154.5105 C.3     1  UNL1        0.4311
     31 F         145.2404  144.3212  153.8758 F       1  UNL1       -0.1669
     32 F         144.4775  142.6882  153.4728 F       1  UNL1       -0.1669
     33 F         146.0853  143.4637  154.9989 F       1  UNL1       -0.1669
     34 S         140.6124  140.8415  167.5307 S.O2    1  UNL1        0.0097
     35 O         140.0334  139.5674  166.9909 O.2     1  UNL1       -0.1686
     36 O         141.1915  142.1155  168.0705 O.2     1  UNL1       -0.1686
     37 C         140.4022  140.3442  168.9301 C.3     1  UNL1        0.1698
     38 C         141.5579  140.2778  169.8841 C.3     1  UNL1        0.1017
     39 C         142.8908  139.9006  170.4595 C.3     1  UNL1        0.0169
     40 C         142.4695  139.3595  169.1254 C.3     1  UNL1        0.0169
     41 C         141.0476  141.1731  170.9740 C.1     1  UNL1        0.0728
     42 N         140.5372  142.0685  172.0639 N.1     1  UNL1       -0.1959
@<TRIPOS>BOND
     1     1     2    1
     2     2     3    2
     3     2     4   am
     4     4     5    1
     5     5     6    1
     6     6     7   ar
     7     7     8   ar
     8     8    34    1
     9    34    35    2
    10    34    36    2
    11    34    37    1
    12    37    38    1
    13    38    41    1
    14    41    42    3
    15    38    39    1
    16    39    40    1
    17     8     9   ar
    18     9    10   ar
    19    10    11   ar
    20    11    12    1
    21    12    13    1
    22    13    14    2
    23    13    15   am
    24    15    17    1
    25    17    18   ar
    26    18    19   ar
    27    19    20   ar
    28    20    23    1
    29    23    24    1
    30    23    26    1
    31    26    27    1
    32    26    28    1
    33    26    29    1
    34    23    30    1
    35    30    31    1
    36    30    32    1
    37    30    33    1
    38    20    21   ar
    39    21    22   ar
    40    12     4    1
    41    22    17   ar
    42    11     6   ar
    43    40    38    1
    44    15    16    1
    45    24    25    1
