@<TRIPOS>MOLECULE
*****
 34 38 0 0 0
SMALL
GASTEIGER

@<TRIPOS>ATOM
      1 N         142.6561  144.6066  161.7100 N.pl3   1  UNL1       -0.2825
      2 H         142.8486  145.5716  161.7402 H       1  UNL1        0.1551
      3 C         139.2074  140.8788  160.0871 C.ar    1  UNL1        0.1572
      4 N         138.2275  140.9268  158.9524 N.ar    1  UNL1       -0.1644
      5 N         138.3567  142.2639  158.2849 N.ar    1  UNL1       -0.2487
      6 C         137.5651  142.7392  157.1027 C.3     1  UNL1        0.1537
      7 C         139.4164  143.0421  159.0069 C.ar    1  UNL1        0.0796
      8 C         139.9705  144.4196  158.7941 C.ar    1  UNL1        0.0201
      9 C         141.0504  144.9411  159.6951 C.ar    1  UNL1        0.0162
     10 C         141.5762  144.0850  160.8090 C.ar    1  UNL1        0.0506
     11 C         141.0221  142.7075  161.0218 C.ar    1  UNL1        0.0179
     12 C         139.9422  142.1861  160.1208 C.ar    1  UNL1        0.0425
     13 C         138.9839  137.7633  164.3444 C.3     1  UNL1        0.0967
     14 C         139.3132  138.2938  162.9806 C.ar    1  UNL1        0.2270
     15 N         140.1606  137.6094  161.9493 N.ar    1  UNL1       -0.1113
     16 N         140.2241  138.4944  160.7399 N.ar    1  UNL1       -0.1055
     17 C         139.4160  139.7258  161.0237 C.ar    1  UNL1        0.2690
     18 O         138.8531  139.6018  162.4085 O.2     1  UNL1       -0.4182
     19 C         143.4427  143.6578  162.5649 C.ar    1  UNL1        0.2207
     20 N         144.7163  143.0596  162.0451 N.ar    1  UNL1       -0.2120
     21 C         145.5030  142.1108  162.9001 C.ar    1  UNL1        0.1034
     22 C         145.0161  141.7602  164.2749 C.ar    1  UNL1        0.0415
     23 C         143.7425  142.3584  164.7947 C.ar    1  UNL1        0.1050
     24 N         142.9559  143.3072  163.9398 N.ar    1  UNL1       -0.2120
     25 C         143.2556  142.0078  166.1694 C.ar    1  UNL1        0.1198
     26 C         142.3829  140.8407  166.5247 C.ar    1  UNL1        0.0381
     27 C         142.1438  140.8744  168.0052 C.ar    1  UNL1        0.0734
     28 N         142.8688  142.0623  168.5648 N.ar    1  UNL1       -0.2515
     29 C         142.9011  142.4770  170.0061 C.3     1  UNL1        0.1534
     30 N         143.5559  142.7628  167.4303 N.ar    1  UNL1       -0.1680
     31 C         141.3237  139.8925  168.7884 C.3     1  UNL1        0.1184
     32 N         139.8275  139.9989  168.7915 N.3     1  UNL1       -0.2652
     33 C         139.0436  139.5835  167.5819 C.3     1  UNL1        0.0900
     34 C         139.1152  140.5205  170.0042 C.3     1  UNL1        0.0900
@<TRIPOS>BOND
     1    13    14    1
     2    14    15   ar
     3    15    16   ar
     4    16    17   ar
     5    17     3    1
     6     3     4   ar
     7     4     5   ar
     8     5     6    1
     9     5     7   ar
    10     7     8   ar
    11     8     9   ar
    12     9    10   ar
    13    10     1    1
    14     1    19    1
    15    19    20   ar
    16    20    21   ar
    17    21    22   ar
    18    22    23   ar
    19    23    25    1
    20    25    26   ar
    21    26    27   ar
    22    27    31    1
    23    31    32    1
    24    32    33    1
    25    32    34    1
    26    27    28   ar
    27    28    29    1
    28    28    30   ar
    29    23    24   ar
    30    10    11   ar
    31    11    12   ar
    32    17    18   ar
    33    18    14   ar
    34    12     3   ar
    35    12     7   ar
    36    24    19   ar
    37    30    25   ar
    38     1     2    1
@<TRIPOS>MOLECULE
*****
 34 38 0 0 0
SMALL
GASTEIGER

@<TRIPOS>ATOM
      1 N         144.2950  140.6602  161.3588 N.pl3   1  UNL1       -0.2825
      2 H         145.2529  140.4621  161.2470 H       1  UNL1        0.1551
      3 C         140.5708  144.3785  160.5056 C.ar    1  UNL1        0.1572
      4 N         140.4175  145.3141  159.3432 N.ar    1  UNL1       -0.1644
      5 N         141.5356  145.0442  158.3804 N.ar    1  UNL1       -0.2487
      6 C         141.7685  145.7524  157.0788 C.3     1  UNL1        0.1537
      7 C         142.3798  143.9417  158.9477 C.ar    1  UNL1        0.0796
      8 C         143.6145  143.2593  158.4380 C.ar    1  UNL1        0.0201
      9 C         144.2529  142.1655  159.2417 C.ar    1  UNL1        0.0162
     10 C         143.6566  141.7541  160.5551 C.ar    1  UNL1        0.0506
     11 C         142.4219  142.4365  161.0649 C.ar    1  UNL1        0.0179
     12 C         141.7835  143.5303  160.2611 C.ar    1  UNL1        0.0425
     13 C         138.6908  144.8732  165.4149 C.3     1  UNL1        0.0967
     14 C         138.8053  144.5315  163.9589 C.ar    1  UNL1        0.2270
     15 N         137.7597  143.8476  163.1288 N.ar    1  UNL1       -0.1113
     16 N         138.2937  143.7071  161.7342 N.ar    1  UNL1       -0.1055
     17 C         139.6695  144.3041  161.7023 C.ar    1  UNL1        0.2690
     18 O         139.9856  144.8135  163.0772 O.2     1  UNL1       -0.4182
     19 C         143.4741  139.8683  162.3329 C.ar    1  UNL1        0.2207
     20 N         142.6581  138.7044  161.8538 N.ar    1  UNL1       -0.2120
     21 C         141.8371  137.9124  162.8280 C.ar    1  UNL1        0.1034
     22 C         141.8322  138.2844  164.2811 C.ar    1  UNL1        0.0415
     23 C         142.6481  139.4483  164.7601 C.ar    1  UNL1        0.1050
     24 N         143.4691  140.2402  163.7861 N.ar    1  UNL1       -0.2120
     25 C         142.6432  139.8202  166.2132 C.ar    1  UNL1        0.1198
     26 C         142.6169  141.2143  166.7665 C.ar    1  UNL1        0.0381
     27 C         142.6211  141.1191  168.2634 C.ar    1  UNL1        0.0734
     28 N         142.6500  139.6662  168.6354 N.ar    1  UNL1       -0.2515
     29 C         142.6630  139.1131  170.0297 C.3     1  UNL1        0.1534
     30 N         142.6637  138.8635  167.3683 N.ar    1  UNL1       -0.1680
     31 C         142.6001  142.2740  169.2204 C.3     1  UNL1        0.1184
     32 N         141.3357  142.6213  169.9490 N.3     1  UNL1       -0.2652
     33 C         140.3710  143.6023  169.3513 C.3     1  UNL1        0.0900
     34 C         141.0361  141.9878  171.2753 C.3     1  UNL1        0.0900
@<TRIPOS>BOND
     1    13    14    1
     2    14    15   ar
     3    15    16   ar
     4    16    17   ar
     5    17     3    1
     6     3     4   ar
     7     4     5   ar
     8     5     6    1
     9     5     7   ar
    10     7     8   ar
    11     8     9   ar
    12     9    10   ar
    13    10     1    1
    14     1    19    1
    15    19    20   ar
    16    20    21   ar
    17    21    22   ar
    18    22    23   ar
    19    23    25    1
    20    25    26   ar
    21    26    27   ar
    22    27    31    1
    23    31    32    1
    24    32    33    1
    25    32    34    1
    26    27    28   ar
    27    28    29    1
    28    28    30   ar
    29    23    24   ar
    30    10    11   ar
    31    11    12   ar
    32    17    18   ar
    33    18    14   ar
    34    12     3   ar
    35    12     7   ar
    36    24    19   ar
    37    30    25   ar
    38     1     2    1
@<TRIPOS>MOLECULE
*****
 34 38 0 0 0
SMALL
GASTEIGER

@<TRIPOS>ATOM
      1 N         143.4702  138.1188  161.4485 N.pl3   1  UNL1       -0.2825
      2 H         143.9388  137.2542  161.4953 H       1  UNL1        0.1551
      3 C         138.9737  140.2503  159.5350 C.ar    1  UNL1        0.1572
      4 N         138.3860  140.1409  158.1593 N.ar    1  UNL1       -0.1644
      5 N         139.3006  139.2877  157.3312 N.ar    1  UNL1       -0.2487
      6 C         139.0978  138.9173  155.8919 C.3     1  UNL1        0.1537
      7 C         140.4534  138.8699  158.1952 C.ar    1  UNL1        0.0796
      8 C         141.6610  138.0246  157.9175 C.ar    1  UNL1        0.0201
      9 C         142.6666  137.7743  159.0020 C.ar    1  UNL1        0.0162
     10 C         142.4646  138.3692  160.3641 C.ar    1  UNL1        0.0506
     11 C         141.2570  139.2145  160.6417 C.ar    1  UNL1        0.0179
     12 C         140.2514  139.4649  159.5572 C.ar    1  UNL1        0.0425
     13 C         137.8866  144.1090  162.9716 C.3     1  UNL1        0.0967
     14 C         137.8870  142.7853  162.2661 C.ar    1  UNL1        0.2270
     15 N         137.0798  141.5810  162.6508 N.ar    1  UNL1       -0.1113
     16 N         137.3886  140.4848  161.6745 N.ar    1  UNL1       -0.1055
     17 C         138.3867  141.0116  160.6865 C.ar    1  UNL1        0.2690
     18 O         138.6947  142.4333  161.0521 O.2     1  UNL1       -0.4182
     19 C         143.7620  139.1857  162.4617 C.ar    1  UNL1        0.2207
     20 N         144.6704  140.3262  162.1095 N.ar    1  UNL1       -0.2120
     21 C         144.9621  141.3932  163.1228 C.ar    1  UNL1        0.1034
     22 C         144.3455  141.3195  164.4882 C.ar    1  UNL1        0.0415
     23 C         143.4371  140.1790  164.8404 C.ar    1  UNL1        0.1050
     24 N         143.1453  139.1121  163.8272 N.ar    1  UNL1       -0.2120
     25 C         142.8204  140.1054  166.2057 C.ar    1  UNL1        0.1198
     26 C         141.6370  140.8943  166.6824 C.ar    1  UNL1        0.0381
     27 C         141.3640  140.5064  168.1054 C.ar    1  UNL1        0.0734
     28 N         142.3788  139.4778  168.5082 N.ar    1  UNL1       -0.2515
     29 C         142.4764  138.8136  169.8497 C.3     1  UNL1        0.1534
     30 N         143.2789  139.2300  167.3341 N.ar    1  UNL1       -0.1680
     31 C         140.2687  141.0514  168.9733 C.3     1  UNL1        0.1184
     32 N         140.5636  142.1484  169.9529 N.3     1  UNL1       -0.2652
     33 C         140.9703  141.8110  171.3567 C.3     1  UNL1        0.0900
     34 C         140.4518  143.5829  169.5286 C.3     1  UNL1        0.0900
@<TRIPOS>BOND
     1    13    14    1
     2    14    15   ar
     3    15    16   ar
     4    16    17   ar
     5    17     3    1
     6     3     4   ar
     7     4     5   ar
     8     5     6    1
     9     5     7   ar
    10     7     8   ar
    11     8     9   ar
    12     9    10   ar
    13    10     1    1
    14     1    19    1
    15    19    20   ar
    16    20    21   ar
    17    21    22   ar
    18    22    23   ar
    19    23    25    1
    20    25    26   ar
    21    26    27   ar
    22    27    31    1
    23    31    32    1
    24    32    33    1
    25    32    34    1
    26    27    28   ar
    27    28    29    1
    28    28    30   ar
    29    23    24   ar
    30    10    11   ar
    31    11    12   ar
    32    17    18   ar
    33    18    14   ar
    34    12     3   ar
    35    12     7   ar
    36    24    19   ar
    37    30    25   ar
    38     1     2    1
@<TRIPOS>MOLECULE
*****
 34 38 0 0 0
SMALL
GASTEIGER

@<TRIPOS>ATOM
      1 N         137.7235  141.2770  162.0269 N.pl3   1  UNL1       -0.2825
      2 H         136.7955  141.5777  162.1596 H       1  UNL1        0.1551
      3 C         142.2645  143.4730  160.3005 C.ar    1  UNL1        0.1572
      4 N         142.5880  144.0373  158.9489 N.ar    1  UNL1       -0.1644
      5 N         141.3725  143.8905  158.0824 N.ar    1  UNL1       -0.2487
      6 C         141.2526  144.3229  156.6510 C.3     1  UNL1        0.1537
      7 C         140.2977  143.2355  158.8984 C.ar    1  UNL1        0.0796
      8 C         138.8884  142.8407  158.5703 C.ar    1  UNL1        0.0201
      9 C         138.0303  142.1879  159.6131 C.ar    1  UNL1        0.0162
     10 C         138.5816  141.9299  160.9840 C.ar    1  UNL1        0.0506
     11 C         139.9910  142.3247  161.3121 C.ar    1  UNL1        0.0179
     12 C         140.8491  142.9775  160.2693 C.ar    1  UNL1        0.0425
     13 C         145.6922  141.7110  163.9098 C.3     1  UNL1        0.0967
     14 C         144.7690  142.6046  163.1359 C.ar    1  UNL1        0.2270
     15 N         144.4766  144.0445  163.4382 N.ar    1  UNL1       -0.1113
     16 N         143.5029  144.5450  162.4129 N.ar    1  UNL1       -0.1055
     17 C         143.1934  143.4145  161.4768 C.ar    1  UNL1        0.2690
     18 O         143.9759  142.2154  161.9236 O.2     1  UNL1       -0.4182
     19 C         138.2793  140.1659  162.8674 C.ar    1  UNL1        0.2207
     20 N         138.3127  138.7651  162.3321 N.ar    1  UNL1       -0.2120
     21 C         138.8685  137.6540  163.1728 C.ar    1  UNL1        0.1034
     22 C         139.3909  137.9438  164.5487 C.ar    1  UNL1        0.0415
     23 C         139.3574  139.3446  165.0840 C.ar    1  UNL1        0.1050
     24 N         138.8017  140.4556  164.2434 N.ar    1  UNL1       -0.2120
     25 C         139.8798  139.6343  166.4599 C.ar    1  UNL1        0.1198
     26 C         141.2901  140.0096  166.8067 C.ar    1  UNL1        0.0381
     27 C         141.3655  140.2069  168.2917 C.ar    1  UNL1        0.0734
     28 N         140.0017  139.9536  168.8627 N.ar    1  UNL1       -0.2515
     29 C         139.6227  140.0391  170.3116 C.3     1  UNL1        0.1534
     30 N         139.0835  139.5997  167.7306 N.ar    1  UNL1       -0.1680
     31 C         142.5896  140.5903  169.0692 C.3     1  UNL1        0.1184
     32 N         142.7962  142.0157  169.4881 N.3     1  UNL1       -0.2652
     33 C         141.6491  142.9815  169.4530 C.3     1  UNL1        0.0900
     34 C         144.1500  142.4753  169.9423 C.3     1  UNL1        0.0900
@<TRIPOS>BOND
     1    13    14    1
     2    14    15   ar
     3    15    16   ar
     4    16    17   ar
     5    17     3    1
     6     3     4   ar
     7     4     5   ar
     8     5     6    1
     9     5     7   ar
    10     7     8   ar
    11     8     9   ar
    12     9    10   ar
    13    10     1    1
    14     1    19    1
    15    19    20   ar
    16    20    21   ar
    17    21    22   ar
    18    22    23   ar
    19    23    25    1
    20    25    26   ar
    21    26    27   ar
    22    27    31    1
    23    31    32    1
    24    32    33    1
    25    32    34    1
    26    27    28   ar
    27    28    29    1
    28    28    30   ar
    29    23    24   ar
    30    10    11   ar
    31    11    12   ar
    32    17    18   ar
    33    18    14   ar
    34    12     3   ar
    35    12     7   ar
    36    24    19   ar
    37    30    25   ar
    38     1     2    1
@<TRIPOS>MOLECULE
*****
 34 38 0 0 0
SMALL
GASTEIGER

@<TRIPOS>ATOM
      1 N         138.8881  137.7381  163.5969 N.pl3   1  UNL1       -0.2825
      2 H         138.8783  136.7538  163.5787 H       1  UNL1        0.1551
      3 C         141.5290  141.0425  166.8420 C.ar    1  UNL1        0.1572
      4 N         141.2016  141.4489  168.2483 N.ar    1  UNL1       -0.1644
      5 N         139.9372  140.7492  168.6504 N.ar    1  UNL1       -0.2487
      6 C         139.2477  140.8675  169.9773 C.3     1  UNL1        0.1537
      7 C         139.4831  139.9105  167.4927 C.ar    1  UNL1        0.0796
      8 C         138.3010  139.0051  167.3118 C.ar    1  UNL1        0.0201
      9 C         138.1026  138.2810  166.0132 C.ar    1  UNL1        0.0162
     10 C         139.0865  138.4623  164.8956 C.ar    1  UNL1        0.0506
     11 C         140.2687  139.3676  165.0764 C.ar    1  UNL1        0.0179
     12 C         140.4670  140.0917  166.3750 C.ar    1  UNL1        0.0425
     13 C         145.5435  141.1468  163.4136 C.3     1  UNL1        0.0967
     14 C         144.5563  141.5535  164.4671 C.ar    1  UNL1        0.2270
     15 N         144.5035  142.8830  165.1597 N.ar    1  UNL1       -0.1113
     16 N         143.3631  142.8534  166.1336 N.ar    1  UNL1       -0.1055
     17 C         142.7110  141.5056  166.0430 C.ar    1  UNL1        0.2690
     18 O         143.4484  140.7023  165.0130 O.2     1  UNL1       -0.4182
     19 C         138.7047  138.5136  162.3262 C.ar    1  UNL1        0.2207
     20 N         137.8171  139.7226  162.3068 N.ar    1  UNL1       -0.2120
     21 C         137.6337  140.4981  161.0359 C.ar    1  UNL1        0.1034
     22 C         138.3380  140.0646  159.7845 C.ar    1  UNL1        0.0415
     23 C         139.2256  138.8556  159.8039 C.ar    1  UNL1        0.1050
     24 N         139.4090  138.0801  161.0747 N.ar    1  UNL1       -0.2120
     25 C         139.9299  138.4221  158.5525 C.ar    1  UNL1        0.1198
     26 C         141.3624  137.9886  158.4520 C.ar    1  UNL1        0.0381
     27 C         141.6431  137.6445  157.0193 C.ar    1  UNL1        0.0734
     28 N         140.3841  137.8654  156.2343 N.ar    1  UNL1       -0.2515
     29 C         140.2139  137.6445  154.7604 C.3     1  UNL1        0.1534
     30 N         139.3253  138.3460  157.1819 N.ar    1  UNL1       -0.1680
     31 C         142.9529  137.1640  156.4682 C.3     1  UNL1        0.1184
     32 N         143.1328  135.7170  156.1162 N.3     1  UNL1       -0.2652
     33 C         143.4022  134.7105  157.1952 C.3     1  UNL1        0.0900
     34 C         143.0435  135.2766  154.6850 C.3     1  UNL1        0.0900
@<TRIPOS>BOND
     1    13    14    1
     2    14    15   ar
     3    15    16   ar
     4    16    17   ar
     5    17     3    1
     6     3     4   ar
     7     4     5   ar
     8     5     6    1
     9     5     7   ar
    10     7     8   ar
    11     8     9   ar
    12     9    10   ar
    13    10     1    1
    14     1    19    1
    15    19    20   ar
    16    20    21   ar
    17    21    22   ar
    18    22    23   ar
    19    23    25    1
    20    25    26   ar
    21    26    27   ar
    22    27    31    1
    23    31    32    1
    24    32    33    1
    25    32    34    1
    26    27    28   ar
    27    28    29    1
    28    28    30   ar
    29    23    24   ar
    30    10    11   ar
    31    11    12   ar
    32    17    18   ar
    33    18    14   ar
    34    12     3   ar
    35    12     7   ar
    36    24    19   ar
    37    30    25   ar
    38     1     2    1
@<TRIPOS>MOLECULE
*****
 34 38 0 0 0
SMALL
GASTEIGER

@<TRIPOS>ATOM
      1 N         144.0719  143.1601  166.0750 N.pl3   1  UNL1       -0.2825
      2 H         144.6210  143.8895  166.4434 H       1  UNL1        0.1551
      3 C         139.7171  140.2168  166.9680 C.ar    1  UNL1        0.1572
      4 N         139.1848  139.6852  168.2656 N.ar    1  UNL1       -0.1644
      5 N         140.1103  140.1250  169.3611 N.ar    1  UNL1       -0.2487
      6 C         139.9582  139.8157  170.8210 C.3     1  UNL1        0.1537
      7 C         141.2146  140.9283  168.7405 C.ar    1  UNL1        0.0796
      8 C         142.4099  141.6154  169.3311 C.ar    1  UNL1        0.0201
      9 C         143.3623  142.3593  168.4426 C.ar    1  UNL1        0.0162
     10 C         143.1194  142.4161  166.9635 C.ar    1  UNL1        0.0506
     11 C         141.9240  141.7290  166.3729 C.ar    1  UNL1        0.0179
     12 C         140.9716  140.9851  167.2614 C.ar    1  UNL1        0.0425
     13 C         138.3926  138.0893  162.3204 C.3     1  UNL1        0.0967
     14 C         138.4940  139.0376  163.4781 C.ar    1  UNL1        0.2270
     15 N         137.8212  140.3740  163.5848 N.ar    1  UNL1       -0.1113
     16 N         138.1974  140.9784  164.9050 N.ar    1  UNL1       -0.1055
     17 C         139.1029  140.0155  165.6144 C.ar    1  UNL1        0.2690
     18 O         139.2861  138.8161  164.7325 O.2     1  UNL1       -0.4182
     19 C         144.1877  142.7927  164.6254 C.ar    1  UNL1        0.2207
     20 N         145.3833  142.0288  164.1385 N.ar    1  UNL1       -0.2120
     21 C         145.4991  141.6614  162.6887 C.ar    1  UNL1        0.1034
     22 C         144.4193  142.0579  161.7260 C.ar    1  UNL1        0.0415
     23 C         143.2238  142.8217  162.2129 C.ar    1  UNL1        0.1050
     24 N         143.1079  143.1891  163.6625 N.ar    1  UNL1       -0.2120
     25 C         142.1440  143.2182  161.2501 C.ar    1  UNL1        0.1198
     26 C         140.8716  142.4663  160.9939 C.ar    1  UNL1        0.0381
     27 C         140.0883  143.2196  159.9600 C.ar    1  UNL1        0.0734
     28 N         140.8766  144.4370  159.5772 N.ar    1  UNL1       -0.2515
     29 C         140.4664  145.4734  158.5734 C.3     1  UNL1        0.1534
     30 N         142.1471  144.4361  160.3746 N.ar    1  UNL1       -0.1680
     31 C         138.7514  142.8248  159.4060 C.3     1  UNL1        0.1184
     32 N         138.6718  141.9271  158.2069 N.3     1  UNL1       -0.2652
     33 C         138.3741  140.4674  158.3812 C.3     1  UNL1        0.0900
     34 C         138.8899  142.4893  156.8334 C.3     1  UNL1        0.0900
@<TRIPOS>BOND
     1    13    14    1
     2    14    15   ar
     3    15    16   ar
     4    16    17   ar
     5    17     3    1
     6     3     4   ar
     7     4     5   ar
     8     5     6    1
     9     5     7   ar
    10     7     8   ar
    11     8     9   ar
    12     9    10   ar
    13    10     1    1
    14     1    19    1
    15    19    20   ar
    16    20    21   ar
    17    21    22   ar
    18    22    23   ar
    19    23    25    1
    20    25    26   ar
    21    26    27   ar
    22    27    31    1
    23    31    32    1
    24    32    33    1
    25    32    34    1
    26    27    28   ar
    27    28    29    1
    28    28    30   ar
    29    23    24   ar
    30    10    11   ar
    31    11    12   ar
    32    17    18   ar
    33    18    14   ar
    34    12     3   ar
    35    12     7   ar
    36    24    19   ar
    37    30    25   ar
    38     1     2    1
@<TRIPOS>MOLECULE
*****
 34 38 0 0 0
SMALL
GASTEIGER

@<TRIPOS>ATOM
      1 N         140.8065  145.6822  161.2174 N.pl3   1  UNL1       -0.2825
      2 H         140.8978  146.6593  161.2955 H       1  UNL1        0.1551
      3 C         143.6795  141.6311  159.2787 C.ar    1  UNL1        0.1572
      4 N         144.1594  141.3978  157.8768 N.ar    1  UNL1       -0.1644
      5 N         143.6880  142.5420  157.0292 N.ar    1  UNL1       -0.2487
      6 C         143.9430  142.7154  155.5612 C.3     1  UNL1        0.1537
      7 C         142.9167  143.4825  157.9071 C.ar    1  UNL1        0.0796
      8 C         142.2186  144.7787  157.6202 C.ar    1  UNL1        0.0201
      9 C         141.5152  145.5119  158.7237 C.ar    1  UNL1        0.0162
     10 C         141.5099  144.9489  160.1140 C.ar    1  UNL1        0.0506
     11 C         142.2081  143.6527  160.4009 C.ar    1  UNL1        0.0179
     12 C         142.9115  142.9195  159.2975 C.ar    1  UNL1        0.0425
     13 C         144.9473  139.9174  164.1095 C.3     1  UNL1        0.0967
     14 C         144.5073  139.9459  162.6758 C.ar    1  UNL1        0.2270
     15 N         144.0959  138.7589  161.8560 N.ar    1  UNL1       -0.1113
     16 N         143.7357  139.2458  160.4837 N.ar    1  UNL1       -0.1055
     17 C         143.9245  140.7336  160.4553 C.ar    1  UNL1        0.2690
     18 O         144.4013  141.1662  161.8101 O.2     1  UNL1       -0.4182
     19 C         139.9639  144.9267  162.2019 C.ar    1  UNL1        0.2207
     20 N         138.4692  144.9411  162.0765 N.ar    1  UNL1       -0.2120
     21 C         137.6267  144.1855  163.0610 C.ar    1  UNL1        0.1034
     22 C         138.2788  143.4156  164.1710 C.ar    1  UNL1        0.0415
     23 C         139.7734  143.4012  164.2964 C.ar    1  UNL1        0.1050
     24 N         140.6160  144.1567  163.3119 N.ar    1  UNL1       -0.2120
     25 C         140.4255  142.6313  165.4063 C.ar    1  UNL1        0.1198
     26 C         140.4178  143.0022  166.8597 C.ar    1  UNL1        0.0381
     27 C         141.1873  141.9555  167.6094 C.ar    1  UNL1        0.0734
     28 N         141.6708  140.9376  166.6192 N.ar    1  UNL1       -0.2515
     29 C         142.4825  139.7164  166.9352 C.3     1  UNL1        0.1534
     30 N         141.1999  141.3553  165.2577 N.ar    1  UNL1       -0.1680
     31 C         141.4308  141.9308  169.0893 C.3     1  UNL1        0.1184
     32 N         140.6177  141.0273  169.9682 N.3     1  UNL1       -0.2652
     33 C         139.3822  140.3695  169.4290 C.3     1  UNL1        0.0900
     34 C         141.0402  140.7815  171.3864 C.3     1  UNL1        0.0900
@<TRIPOS>BOND
     1    13    14    1
     2    14    15   ar
     3    15    16   ar
     4    16    17   ar
     5    17     3    1
     6     3     4   ar
     7     4     5   ar
     8     5     6    1
     9     5     7   ar
    10     7     8   ar
    11     8     9   ar
    12     9    10   ar
    13    10     1    1
    14     1    19    1
    15    19    20   ar
    16    20    21   ar
    17    21    22   ar
    18    22    23   ar
    19    23    25    1
    20    25    26   ar
    21    26    27   ar
    22    27    31    1
    23    31    32    1
    24    32    33    1
    25    32    34    1
    26    27    28   ar
    27    28    29    1
    28    28    30   ar
    29    23    24   ar
    30    10    11   ar
    31    11    12   ar
    32    17    18   ar
    33    18    14   ar
    34    12     3   ar
    35    12     7   ar
    36    24    19   ar
    37    30    25   ar
    38     1     2    1
@<TRIPOS>MOLECULE
*****
 34 38 0 0 0
SMALL
GASTEIGER

@<TRIPOS>ATOM
      1 N         143.8338  142.7263  166.3130 N.pl3   1  UNL1       -0.2825
      2 H         144.4878  143.2709  166.8080 H       1  UNL1        0.1551
      3 C         139.6029  139.4978  166.6288 C.ar    1  UNL1        0.1572
      4 N         138.6747  139.2655  167.7841 N.ar    1  UNL1       -0.1644
      5 N         139.1295  140.1273  168.9245 N.ar    1  UNL1       -0.2487
      6 C         138.4877  140.2098  170.2777 C.3     1  UNL1        0.1537
      7 C         140.3387  140.8922  168.4740 C.ar    1  UNL1        0.0796
      8 C         141.2111  141.8926  169.1725 C.ar    1  UNL1        0.0201
      9 C         142.3761  142.5040  168.4522 C.ar    1  UNL1        0.0162
     10 C         142.6687  142.1149  167.0334 C.ar    1  UNL1        0.0506
     11 C         141.7963  141.1144  166.3349 C.ar    1  UNL1        0.0179
     12 C         140.6313  140.5031  167.0552 C.ar    1  UNL1        0.0425
     13 C         137.9712  138.1549  161.7899 C.3     1  UNL1        0.0967
     14 C         138.7676  138.2229  163.0591 C.ar    1  UNL1        0.2270
     15 N         140.0054  137.4334  163.3667 N.ar    1  UNL1       -0.1113
     16 N         140.4690  137.8149  164.7413 N.ar    1  UNL1       -0.1055
     17 C         139.5177  138.8401  165.2834 C.ar    1  UNL1        0.2690
     18 O         138.4662  139.0923  164.2438 O.2     1  UNL1       -0.4182
     19 C         144.0025  142.5079  164.8387 C.ar    1  UNL1        0.2207
     20 N         145.2650  141.8934  164.3111 N.ar    1  UNL1       -0.2120
     21 C         145.4336  141.6750  162.8366 C.ar    1  UNL1        0.1034
     22 C         144.3398  142.0711  161.8898 C.ar    1  UNL1        0.0415
     23 C         143.0772  142.6857  162.4174 C.ar    1  UNL1        0.1050
     24 N         142.9086  142.9040  163.8918 N.ar    1  UNL1       -0.2120
     25 C         141.9833  143.0818  161.4706 C.ar    1  UNL1        0.1198
     26 C         141.9192  144.3554  160.6808 C.ar    1  UNL1        0.0381
     27 C         140.6578  144.3347  159.8694 C.ar    1  UNL1        0.0734
     28 N         139.9422  143.0482  160.1579 N.ar    1  UNL1       -0.2515
     29 C         138.6367  142.6125  159.5615 C.3     1  UNL1        0.1534
     30 N         140.7615  142.2739  161.1475 N.ar    1  UNL1       -0.1680
     31 C         140.1933  145.4113  158.9339 C.3     1  UNL1        0.1184
     32 N         140.6713  145.4270  157.5122 N.3     1  UNL1       -0.2652
     33 C         142.0477  145.9281  157.1892 C.3     1  UNL1        0.0900
     34 C         139.7727  144.9416  156.4134 C.3     1  UNL1        0.0900
@<TRIPOS>BOND
     1    13    14    1
     2    14    15   ar
     3    15    16   ar
     4    16    17   ar
     5    17     3    1
     6     3     4   ar
     7     4     5   ar
     8     5     6    1
     9     5     7   ar
    10     7     8   ar
    11     8     9   ar
    12     9    10   ar
    13    10     1    1
    14     1    19    1
    15    19    20   ar
    16    20    21   ar
    17    21    22   ar
    18    22    23   ar
    19    23    25    1
    20    25    26   ar
    21    26    27   ar
    22    27    31    1
    23    31    32    1
    24    32    33    1
    25    32    34    1
    26    27    28   ar
    27    28    29    1
    28    28    30   ar
    29    23    24   ar
    30    10    11   ar
    31    11    12   ar
    32    17    18   ar
    33    18    14   ar
    34    12     3   ar
    35    12     7   ar
    36    24    19   ar
    37    30    25   ar
    38     1     2    1
@<TRIPOS>MOLECULE
*****
 34 38 0 0 0
SMALL
GASTEIGER

@<TRIPOS>ATOM
      1 N         137.9429  141.1094  160.8253 N.pl3   1  UNL1       -0.2825
      2 H         136.9989  140.8771  160.6699 H       1  UNL1        0.1551
      3 C         142.9069  139.3333  160.0328 C.ar    1  UNL1        0.1572
      4 N         143.4965  138.6859  158.8150 N.ar    1  UNL1       -0.1644
      5 N         142.4229  138.5980  157.7711 N.ar    1  UNL1       -0.2487
      6 C         142.5755  138.0187  156.3960 C.3     1  UNL1        0.1537
      7 C         141.1698  139.1911  158.3439 C.ar    1  UNL1        0.0796
      8 C         139.7950  139.3760  157.7732 C.ar    1  UNL1        0.0201
      9 C         138.7194  140.0155  158.6003 C.ar    1  UNL1        0.0162
     10 C         139.0186  140.4699  159.9981 C.ar    1  UNL1        0.0506
     11 C         140.3934  140.2850  160.5688 C.ar    1  UNL1        0.0179
     12 C         141.4690  139.6456  159.7417 C.ar    1  UNL1        0.0425
     13 C         145.6582  141.7965  163.8069 C.3     1  UNL1        0.0967
     14 C         144.8933  140.7507  163.0513 C.ar    1  UNL1        0.2270
     15 N         144.5851  139.3638  163.5326 N.ar    1  UNL1       -0.1113
     16 N         143.8035  138.6641  162.4604 N.ar    1  UNL1       -0.1055
     17 C         143.6286  139.6185  161.3165 C.ar    1  UNL1        0.2690
     18 O         144.3021  140.9080  161.6817 O.2     1  UNL1       -0.4182
     19 C         138.3055  142.1027  161.8891 C.ar    1  UNL1        0.2207
     20 N         138.1006  143.5689  161.6475 N.ar    1  UNL1       -0.2120
     21 C         138.4633  144.5622  162.7114 C.ar    1  UNL1        0.1034
     22 C         139.0308  144.0894  164.0168 C.ar    1  UNL1        0.0415
     23 C         139.2358  142.6232  164.2585 C.ar    1  UNL1        0.1050
     24 N         138.8731  141.6299  163.1946 N.ar    1  UNL1       -0.2120
     25 C         139.8033  142.1504  165.5639 C.ar    1  UNL1        0.1198
     26 C         141.0019  142.7208  166.2625 C.ar    1  UNL1        0.0381
     27 C         141.2113  141.9470  167.5304 C.ar    1  UNL1        0.0734
     28 N         140.1420  140.8984  167.6153 N.ar    1  UNL1       -0.2515
     29 C         139.9727  139.8995  168.7215 C.3     1  UNL1        0.1534
     30 N         139.2719  141.0241  166.4000 N.ar    1  UNL1       -0.1680
     31 C         142.2989  142.1808  168.5365 C.3     1  UNL1        0.1184
     32 N         142.0416  143.0517  169.7304 N.3     1  UNL1       -0.2652
     33 C         140.6901  143.6713  169.9295 C.3     1  UNL1        0.0900
     34 C         143.1358  143.3030  170.7253 C.3     1  UNL1        0.0900
@<TRIPOS>BOND
     1    13    14    1
     2    14    15   ar
     3    15    16   ar
     4    16    17   ar
     5    17     3    1
     6     3     4   ar
     7     4     5   ar
     8     5     6    1
     9     5     7   ar
    10     7     8   ar
    11     8     9   ar
    12     9    10   ar
    13    10     1    1
    14     1    19    1
    15    19    20   ar
    16    20    21   ar
    17    21    22   ar
    18    22    23   ar
    19    23    25    1
    20    25    26   ar
    21    26    27   ar
    22    27    31    1
    23    31    32    1
    24    32    33    1
    25    32    34    1
    26    27    28   ar
    27    28    29    1
    28    28    30   ar
    29    23    24   ar
    30    10    11   ar
    31    11    12   ar
    32    17    18   ar
    33    18    14   ar
    34    12     3   ar
    35    12     7   ar
    36    24    19   ar
    37    30    25   ar
    38     1     2    1
