@<TRIPOS>MOLECULE
*****
 40 46 0 0 0
SMALL
GASTEIGER

@<TRIPOS>ATOM
      1 N         142.3003  143.0563  161.0823 N.ar    1  UNL1       -0.3132
      2 C         142.2294  142.2016  162.3129 C.ar    1  UNL1        0.0771
      3 C         141.1632  142.7628  163.2062 C.ar    1  UNL1        0.0229
      4 C         140.5751  143.9644  162.5278 C.ar    1  UNL1        0.0668
      5 C         139.4904  144.9168  162.9357 C.ar    1  UNL1        0.1300
      6 N         138.7877  144.7355  164.2484 N.pl3   1  UNL1       -0.3425
      7 N         139.1085  146.0506  162.0309 N.ar    1  UNL1       -0.2094
      8 C         139.8113  146.2320  160.7182 C.ar    1  UNL1        0.2014
      9 N         140.8959  145.2796  160.3103 N.ar    1  UNL1       -0.2065
     10 C         141.2778  144.1458  161.2151 C.ar    1  UNL1        0.1482
     11 H         139.0383  143.9913  164.8423 H       1  UNL1        0.1437
     12 H         138.0758  145.3606  164.5162 H       1  UNL1        0.1437
     13 C         140.7565  142.2182  164.5434 C.ar    1  UNL1        0.0046
     14 C         141.3934  142.7475  165.7941 C.ar    1  UNL1        0.0003
     15 C         140.9866  142.2028  167.1313 C.ar    1  UNL1        0.0031
     16 C         139.9430  141.1289  167.2177 C.ar    1  UNL1        0.0369
     17 C         139.3062  140.5996  165.9670 C.ar    1  UNL1        0.1387
     18 C         139.7129  141.1443  164.6299 C.ar    1  UNL1        0.0369
     19 O         138.2626  139.5256  166.0535 O.3     1  UNL1       -0.4729
     20 C         138.5677  138.1419  165.5613 C.3     1  UNL1        0.2321
     21 C         139.6471  137.9296  164.5416 C.3     1  UNL1        0.1329
     22 C         141.1058  137.7314  164.8298 C.3     1  UNL1        0.0334
     23 C         141.8175  137.5575  163.5209 C.3     1  UNL1        0.0321
     24 C         140.7987  137.6483  162.4236 C.3     1  UNL1        0.1153
     25 C         139.3401  137.8466  162.1355 C.3     1  UNL1        0.0321
     26 C         138.6284  138.0204  163.4443 C.3     1  UNL1        0.0334
     27 O         139.4573  137.8783  163.0544 O.3     1  UNL1       -0.3574
     28 C         144.5454  142.5743  158.2821 C.3     1  UNL1        0.0613
     29 C         143.2634  143.3227  158.4970 C.3     1  UNL1        0.0387
     30 C         143.2303  142.8566  159.9224 C.3     1  UNL1        0.0896
     31 C         144.5123  142.1083  159.7075 C.3     1  UNL1        0.0387
     32 C         147.7392  141.2453  152.3420 C.3     1  UNL1        0.0948
     33 C         148.2655  141.7755  153.6428 C.2     1  UNL1        0.2262
     34 O         149.7218  142.1061  153.7837 O.2     1  UNL1       -0.2749
     35 N         147.3354  141.9752  154.8025 N.am    1  UNL1       -0.2767
     36 C         145.8791  141.6446  154.6617 C.3     1  UNL1        0.1107
     37 C         144.9491  141.8443  155.8215 C.3     1  UNL1        0.0939
     38 N         145.4754  142.3746  157.1222 N.3     1  UNL1       -0.2710
     39 C         146.9317  142.7052  157.2631 C.3     1  UNL1        0.0939
     40 C         147.8617  142.5055  156.1033 C.3     1  UNL1        0.1107
@<TRIPOS>BOND
     1    32    33    1
     2    33    34    2
     3    33    35   am
     4    35    36    1
     5    36    37    1
     6    37    38    1
     7    28    38    1
     8    28    29    1
     9    29    30    1
    10    30     1    1
    11     1     2   ar
    12     2     3   ar
    13     3    13    1
    14    13    14   ar
    15    14    15   ar
    16    15    16   ar
    17    16    17   ar
    18    17    19    1
    19    19    20    1
    20    20    21    1
    21    21    22    1
    22    22    23    1
    23    23    24    1
    24    24    25    1
    25    25    26    1
    26    24    27    1
    27    17    18   ar
    28     3     4   ar
    29     4     5   ar
    30     5     6    1
    31     5     7   ar
    32     7     8   ar
    33     8     9   ar
    34     9    10   ar
    35    30    31    1
    36    38    39    1
    37    39    40    1
    38    40    35    1
    39    31    28    1
    40    10     1   ar
    41    18    13   ar
    42    10     4   ar
    43    26    21    1
    44    27    21    1
    45     6    11    1
    46     6    12    1
@<TRIPOS>MOLECULE
*****
 40 46 0 0 0
SMALL
GASTEIGER

@<TRIPOS>ATOM
      1 N         141.1849  140.7541  159.3135 N.ar    1  UNL1       -0.3132
      2 C         140.4047  140.8653  160.5898 C.ar    1  UNL1        0.0771
      3 C         140.3910  142.3080  161.0004 C.ar    1  UNL1        0.0229
      4 C         141.1627  143.0883  159.9778 C.ar    1  UNL1        0.0668
      5 C         141.4820  144.5493  159.8614 C.ar    1  UNL1        0.1300
      6 N         140.9913  145.5097  160.9040 N.pl3   1  UNL1       -0.3425
      7 N         142.2919  145.0499  158.7023 N.ar    1  UNL1       -0.2094
      8 C         142.7825  144.0895  157.6598 C.ar    1  UNL1        0.2014
      9 N         142.4632  142.6285  157.7762 N.ar    1  UNL1       -0.2065
     10 C         141.6533  142.1280  158.9353 C.ar    1  UNL1        0.1482
     11 H         140.4598  145.1811  161.6647 H       1  UNL1        0.1437
     12 H         141.2009  146.4686  160.8275 H       1  UNL1        0.1437
     13 C         139.7230  142.8714  162.2195 C.ar    1  UNL1        0.0046
     14 C         138.3674  143.5039  162.1072 C.ar    1  UNL1        0.0003
     15 C         137.6993  144.0673  163.3263 C.ar    1  UNL1        0.0031
     16 C         138.3867  143.9983  164.6577 C.ar    1  UNL1        0.0369
     17 C         139.7422  143.3659  164.7700 C.ar    1  UNL1        0.1387
     18 C         140.4103  142.8024  163.5509 C.ar    1  UNL1        0.0369
     19 O         140.4296  143.2969  166.1014 O.3     1  UNL1       -0.4729
     20 C         140.7736  141.9651  166.6998 C.3     1  UNL1        0.2321
     21 C         140.2301  141.5843  168.0450 C.3     1  UNL1        0.1329
     22 C         139.6052  140.2686  168.4033 C.3     1  UNL1        0.0334
     23 C         139.2050  140.3237  169.8480 C.3     1  UNL1        0.0321
     24 C         139.5825  141.6734  170.3825 C.3     1  UNL1        0.1153
     25 C         140.2073  142.9891  170.0241 C.3     1  UNL1        0.0321
     26 C         140.6076  142.9341  168.5795 C.3     1  UNL1        0.0334
     27 O         140.2160  142.4526  169.2682 O.3     1  UNL1       -0.3574
     28 C         141.8251  137.7041  157.4690 C.3     1  UNL1        0.0613
     29 C         142.6278  138.9235  157.8139 C.3     1  UNL1        0.0387
     30 C         141.4500  139.4908  158.5495 C.3     1  UNL1        0.0896
     31 C         140.6474  138.2714  158.2046 C.3     1  UNL1        0.0387
     32 C         142.1179  132.3579  153.1583 C.3     1  UNL1        0.0948
     33 C         142.8859  132.6508  154.4131 C.2     1  UNL1        0.2262
     34 O         143.9189  131.6804  154.9039 O.2     1  UNL1       -0.2749
     35 N         142.6206  133.9141  155.1770 N.am    1  UNL1       -0.2767
     36 C         141.5875  134.8846  154.6862 C.3     1  UNL1        0.1107
     37 C         141.3224  136.1479  155.4502 C.3     1  UNL1        0.0939
     38 N         142.0903  136.4408  156.7050 N.3     1  UNL1       -0.2710
     39 C         143.1234  135.4703  157.1958 C.3     1  UNL1        0.0939
     40 C         143.3886  134.2071  156.4319 C.3     1  UNL1        0.1107
@<TRIPOS>BOND
     1    32    33    1
     2    33    34    2
     3    33    35   am
     4    35    36    1
     5    36    37    1
     6    37    38    1
     7    28    38    1
     8    28    29    1
     9    29    30    1
    10    30     1    1
    11     1     2   ar
    12     2     3   ar
    13     3    13    1
    14    13    14   ar
    15    14    15   ar
    16    15    16   ar
    17    16    17   ar
    18    17    19    1
    19    19    20    1
    20    20    21    1
    21    21    22    1
    22    22    23    1
    23    23    24    1
    24    24    25    1
    25    25    26    1
    26    24    27    1
    27    17    18   ar
    28     3     4   ar
    29     4     5   ar
    30     5     6    1
    31     5     7   ar
    32     7     8   ar
    33     8     9   ar
    34     9    10   ar
    35    30    31    1
    36    38    39    1
    37    39    40    1
    38    40    35    1
    39    31    28    1
    40    10     1   ar
    41    18    13   ar
    42    10     4   ar
    43    26    21    1
    44    27    21    1
    45     6    11    1
    46     6    12    1
@<TRIPOS>MOLECULE
*****
 40 46 0 0 0
SMALL
GASTEIGER

@<TRIPOS>ATOM
      1 N         142.7864  140.1080  159.6195 N.ar    1  UNL1       -0.3132
      2 C         143.0498  140.0976  161.0961 C.ar    1  UNL1        0.0771
      3 C         143.0015  141.5147  161.5855 C.ar    1  UNL1        0.0229
      4 C         142.7082  142.4009  160.4114 C.ar    1  UNL1        0.0668
      5 C         142.5451  143.8871  160.2917 C.ar    1  UNL1        0.1300
      6 N         142.6780  144.7565  161.5068 N.pl3   1  UNL1       -0.3425
      7 N         142.2490  144.5040  158.9569 N.ar    1  UNL1       -0.2094
      8 C         142.1161  143.6346  157.7418 C.ar    1  UNL1        0.2014
      9 N         142.2792  142.1484  157.8615 N.ar    1  UNL1       -0.2065
     10 C         142.5753  141.5315  159.1963 C.ar    1  UNL1        0.1482
     11 H         142.8724  144.3516  162.3829 H       1  UNL1        0.1437
     12 H         142.5709  145.7320  161.4282 H       1  UNL1        0.1437
     13 C         143.2099  141.9663  163.0007 C.ar    1  UNL1        0.0046
     14 C         144.5721  142.3974  163.4575 C.ar    1  UNL1        0.0003
     15 C         144.7805  142.8490  164.8727 C.ar    1  UNL1        0.0031
     16 C         143.6267  142.8696  165.8310 C.ar    1  UNL1        0.0369
     17 C         142.2646  142.4384  165.3741 C.ar    1  UNL1        0.1387
     18 C         142.0562  141.9868  163.9590 C.ar    1  UNL1        0.0369
     19 O         141.1108  142.4590  166.3324 O.3     1  UNL1       -0.4729
     20 C         139.9672  143.4037  166.1094 C.3     1  UNL1        0.2321
     21 C         139.0382  143.1963  164.9502 C.3     1  UNL1        0.1329
     22 C         138.2219  141.9664  164.6835 C.3     1  UNL1        0.0334
     23 C         137.4415  142.1923  163.4226 C.3     1  UNL1        0.0321
     24 C         137.7754  143.5619  162.9099 C.3     1  UNL1        0.1153
     25 C         138.5917  144.7918  163.1766 C.3     1  UNL1        0.0321
     26 C         139.3721  144.5658  164.4375 C.3     1  UNL1        0.0334
     27 O         138.7622  144.1824  163.8540 O.3     1  UNL1       -0.3574
     28 C         142.6789  137.2059  157.4560 C.3     1  UNL1        0.0613
     29 C         142.5894  137.4290  158.9366 C.3     1  UNL1        0.0387
     30 C         142.7419  138.9059  158.7233 C.3     1  UNL1        0.0896
     31 C         142.8314  138.6828  157.2427 C.3     1  UNL1        0.0387
     32 C         141.3446  132.2016  152.9363 C.3     1  UNL1        0.0948
     33 C         142.5010  132.3977  153.8714 C.2     1  UNL1        0.2262
     34 O         143.6130  131.3917  153.9103 O.2     1  UNL1       -0.2749
     35 N         142.5454  133.5998  154.7675 N.am    1  UNL1       -0.2767
     36 C         141.4335  134.6058  154.7287 C.3     1  UNL1        0.1107
     37 C         141.4780  135.8078  155.6248 C.3     1  UNL1        0.0939
     38 N         142.6344  136.0039  156.5598 N.3     1  UNL1       -0.2710
     39 C         143.7464  134.9978  156.5987 C.3     1  UNL1        0.0939
     40 C         143.7019  133.7958  155.7026 C.3     1  UNL1        0.1107
@<TRIPOS>BOND
     1    32    33    1
     2    33    34    2
     3    33    35   am
     4    35    36    1
     5    36    37    1
     6    37    38    1
     7    28    38    1
     8    28    29    1
     9    29    30    1
    10    30     1    1
    11     1     2   ar
    12     2     3   ar
    13     3    13    1
    14    13    14   ar
    15    14    15   ar
    16    15    16   ar
    17    16    17   ar
    18    17    19    1
    19    19    20    1
    20    20    21    1
    21    21    22    1
    22    22    23    1
    23    23    24    1
    24    24    25    1
    25    25    26    1
    26    24    27    1
    27    17    18   ar
    28     3     4   ar
    29     4     5   ar
    30     5     6    1
    31     5     7   ar
    32     7     8   ar
    33     8     9   ar
    34     9    10   ar
    35    30    31    1
    36    38    39    1
    37    39    40    1
    38    40    35    1
    39    31    28    1
    40    10     1   ar
    41    18    13   ar
    42    10     4   ar
    43    26    21    1
    44    27    21    1
    45     6    11    1
    46     6    12    1
@<TRIPOS>MOLECULE
*****
 40 46 0 0 0
SMALL
GASTEIGER

@<TRIPOS>ATOM
      1 N         141.0517  140.8182  159.5370 N.ar    1  UNL1       -0.3132
      2 C         140.3037  140.8846  160.8355 C.ar    1  UNL1        0.0771
      3 C         140.2974  142.3127  161.2943 C.ar    1  UNL1        0.0229
      4 C         141.0415  143.1289  160.2794 C.ar    1  UNL1        0.0668
      5 C         141.3548  144.5939  160.2039 C.ar    1  UNL1        0.1300
      6 N         140.8886  145.5175  161.2900 N.pl3   1  UNL1       -0.3425
      7 N         142.1343  145.1352  159.0423 N.ar    1  UNL1       -0.2094
      8 C         142.6005  144.2115  157.9562 C.ar    1  UNL1        0.2014
      9 N         142.2872  142.7466  158.0318 N.ar    1  UNL1       -0.2065
     10 C         141.5077  142.2053  159.1933 C.ar    1  UNL1        0.1482
     11 H         140.3770  145.1622  162.0524 H       1  UNL1        0.1437
     12 H         141.0942  146.4790  161.2404 H       1  UNL1        0.1437
     13 C         139.6590  142.8332  162.5479 C.ar    1  UNL1        0.0046
     14 C         138.3624  143.5839  162.4734 C.ar    1  UNL1        0.0003
     15 C         137.7241  144.1044  163.7271 C.ar    1  UNL1        0.0031
     16 C         138.3822  143.8742  165.0552 C.ar    1  UNL1        0.0369
     17 C         139.6787  143.1236  165.1296 C.ar    1  UNL1        0.1387
     18 C         140.3171  142.6031  163.8760 C.ar    1  UNL1        0.0369
     19 O         140.3368  142.8934  166.4577 O.3     1  UNL1       -0.4729
     20 C         140.1815  141.5734  167.1530 C.3     1  UNL1        0.2321
     21 C         139.8536  140.3425  166.3610 C.3     1  UNL1        0.1329
     22 C         138.4785  139.8785  165.9816 C.3     1  UNL1        0.0334
     23 C         138.6182  138.6087  165.1953 C.3     1  UNL1        0.0321
     24 C         140.0796  138.2879  165.0888 C.3     1  UNL1        0.1153
     25 C         141.4546  138.7519  165.4682 C.3     1  UNL1        0.0321
     26 C         141.3150  140.0217  166.2544 C.3     1  UNL1        0.0334
     27 O         140.8432  139.3594  165.8091 O.3     1  UNL1       -0.3574
     28 C         141.6514  137.8333  157.5762 C.3     1  UNL1        0.0613
     29 C         140.5490  138.3074  158.4761 C.3     1  UNL1        0.0387
     30 C         141.3002  139.5819  158.7248 C.3     1  UNL1        0.0896
     31 C         142.4025  139.1077  157.8249 C.3     1  UNL1        0.0387
     32 C         141.8190  132.6144  153.1057 C.3     1  UNL1        0.0948
     33 C         142.6453  132.8879  154.3274 C.2     1  UNL1        0.2262
     34 O         143.7200  131.9249  154.7369 O.2     1  UNL1       -0.2749
     35 N         142.3967  134.1242  155.1395 N.am    1  UNL1       -0.2767
     36 C         141.3220  135.0872  154.7301 C.3     1  UNL1        0.1107
     37 C         141.0736  136.3236  155.5423 C.3     1  UNL1        0.0939
     38 N         141.8999  136.5970  156.7640 N.3     1  UNL1       -0.2710
     39 C         142.9745  135.6340  157.1734 C.3     1  UNL1        0.0939
     40 C         143.2230  134.3977  156.3613 C.3     1  UNL1        0.1107
@<TRIPOS>BOND
     1    32    33    1
     2    33    34    2
     3    33    35   am
     4    35    36    1
     5    36    37    1
     6    37    38    1
     7    28    38    1
     8    28    29    1
     9    29    30    1
    10    30     1    1
    11     1     2   ar
    12     2     3   ar
    13     3    13    1
    14    13    14   ar
    15    14    15   ar
    16    15    16   ar
    17    16    17   ar
    18    17    19    1
    19    19    20    1
    20    20    21    1
    21    21    22    1
    22    22    23    1
    23    23    24    1
    24    24    25    1
    25    25    26    1
    26    24    27    1
    27    17    18   ar
    28     3     4   ar
    29     4     5   ar
    30     5     6    1
    31     5     7   ar
    32     7     8   ar
    33     8     9   ar
    34     9    10   ar
    35    30    31    1
    36    38    39    1
    37    39    40    1
    38    40    35    1
    39    31    28    1
    40    10     1   ar
    41    18    13   ar
    42    10     4   ar
    43    26    21    1
    44    27    21    1
    45     6    11    1
    46     6    12    1
@<TRIPOS>MOLECULE
*****
 40 46 0 0 0
SMALL
GASTEIGER

@<TRIPOS>ATOM
      1 N         142.4610  140.8449  158.5014 N.ar    1  UNL1       -0.3132
      2 C         142.4134  141.2274  159.9510 C.ar    1  UNL1        0.0771
      3 C         142.2572  142.7170  160.0325 C.ar    1  UNL1        0.0229
      4 C         142.2082  143.2552  158.6332 C.ar    1  UNL1        0.0668
      5 C         142.0651  144.6493  158.0985 C.ar    1  UNL1        0.1300
      6 N         141.9391  145.8063  159.0447 N.pl3   1  UNL1       -0.3425
      7 N         142.0480  144.8863  156.6175 N.ar    1  UNL1       -0.2094
      8 C         142.1740  143.7293  155.6712 C.ar    1  UNL1        0.2014
      9 N         142.3171  142.3352  156.2059 N.ar    1  UNL1       -0.2065
     10 C         142.3341  142.0981  157.6869 C.ar    1  UNL1        0.1482
     11 H         141.9503  145.6506  160.0168 H       1  UNL1        0.1437
     12 H         141.8452  146.7213  158.6938 H       1  UNL1        0.1437
     13 C         142.1659  143.5264  161.2921 C.ar    1  UNL1        0.0046
     14 C         143.4149  143.9118  162.0281 C.ar    1  UNL1        0.0003
     15 C         143.3236  144.7212  163.2877 C.ar    1  UNL1        0.0031
     16 C         141.9835  145.1451  163.8113 C.ar    1  UNL1        0.0369
     17 C         140.7346  144.7597  163.0753 C.ar    1  UNL1        0.1387
     18 C         140.8258  143.9503  161.8157 C.ar    1  UNL1        0.0369
     19 O         139.3944  145.1837  163.5990 O.3     1  UNL1       -0.4729
     20 C         138.7670  144.4422  164.7420 C.3     1  UNL1        0.2321
     21 C         138.6551  142.9471  164.6949 C.3     1  UNL1        0.1329
     22 C         139.3849  141.9800  165.5794 C.3     1  UNL1        0.0334
     23 C         138.9745  140.5918  165.1862 C.3     1  UNL1        0.0321
     24 C         137.9912  140.7009  164.0587 C.3     1  UNL1        0.1153
     25 C         137.2614  141.6680  163.1744 C.3     1  UNL1        0.0321
     26 C         137.6717  143.0562  163.5675 C.3     1  UNL1        0.0334
     27 O         137.7937  142.1565  163.7551 O.3     1  UNL1       -0.3574
     28 C         142.8192  137.4857  157.1969 C.3     1  UNL1        0.0613
     29 C         142.1312  138.0955  158.3822 C.3     1  UNL1        0.0387
     30 C         142.6094  139.4535  157.9610 C.3     1  UNL1        0.0896
     31 C         143.2973  138.8437  156.7759 C.3     1  UNL1        0.0387
     32 C         143.1568  131.6484  153.5828 C.3     1  UNL1        0.0948
     33 C         143.4128  131.9201  155.0357 C.2     1  UNL1        0.2262
     34 O         143.8172  130.8003  155.9481 O.2     1  UNL1       -0.2749
     35 N         143.2644  133.3115  155.5759 N.am    1  UNL1       -0.2767
     36 C         142.8600  134.4313  154.6634 C.3     1  UNL1        0.1107
     37 C         142.7116  135.8227  155.2038 C.3     1  UNL1        0.0939
     38 N         142.9676  136.0943  156.6566 N.3     1  UNL1       -0.2710
     39 C         143.3720  134.9745  157.5690 C.3     1  UNL1        0.0939
     40 C         143.5204  133.5832  157.0287 C.3     1  UNL1        0.1107
@<TRIPOS>BOND
     1    32    33    1
     2    33    34    2
     3    33    35   am
     4    35    36    1
     5    36    37    1
     6    37    38    1
     7    28    38    1
     8    28    29    1
     9    29    30    1
    10    30     1    1
    11     1     2   ar
    12     2     3   ar
    13     3    13    1
    14    13    14   ar
    15    14    15   ar
    16    15    16   ar
    17    16    17   ar
    18    17    19    1
    19    19    20    1
    20    20    21    1
    21    21    22    1
    22    22    23    1
    23    23    24    1
    24    24    25    1
    25    25    26    1
    26    24    27    1
    27    17    18   ar
    28     3     4   ar
    29     4     5   ar
    30     5     6    1
    31     5     7   ar
    32     7     8   ar
    33     8     9   ar
    34     9    10   ar
    35    30    31    1
    36    38    39    1
    37    39    40    1
    38    40    35    1
    39    31    28    1
    40    10     1   ar
    41    18    13   ar
    42    10     4   ar
    43    26    21    1
    44    27    21    1
    45     6    11    1
    46     6    12    1
@<TRIPOS>MOLECULE
*****
 40 46 0 0 0
SMALL
GASTEIGER

@<TRIPOS>ATOM
      1 N         142.7949  140.1245  159.6702 N.ar    1  UNL1       -0.3132
      2 C         143.0765  140.1066  161.1434 C.ar    1  UNL1        0.0771
      3 C         143.0197  141.5197  161.6433 C.ar    1  UNL1        0.0229
      4 C         142.7031  142.4109  160.4791 C.ar    1  UNL1        0.0668
      5 C         142.5234  143.8962  160.3718 C.ar    1  UNL1        0.1300
      6 N         142.6623  144.7585  161.5913 N.pl3   1  UNL1       -0.3425
      7 N         142.2046  144.5192  159.0451 N.ar    1  UNL1       -0.2094
      8 C         142.0657  143.6569  157.8256 C.ar    1  UNL1        0.2014
      9 N         142.2454  142.1716  157.9329 N.ar    1  UNL1       -0.2065
     10 C         142.5641  141.5486  159.2596 C.ar    1  UNL1        0.1482
     11 H         142.8715  144.3496  162.4621 H       1  UNL1        0.1437
     12 H         142.5444  145.7334  161.5209 H       1  UNL1        0.1437
     13 C         143.2408  141.9637  163.0589 C.ar    1  UNL1        0.0046
     14 C         144.6126  142.3663  163.5131 C.ar    1  UNL1        0.0003
     15 C         144.8337  142.8103  164.9288 C.ar    1  UNL1        0.0031
     16 C         143.6831  142.8516  165.8902 C.ar    1  UNL1        0.0369
     17 C         142.3114  142.4490  165.4360 C.ar    1  UNL1        0.1387
     18 C         142.0903  142.0050  164.0204 C.ar    1  UNL1        0.0369
     19 O         141.1609  142.4903  166.3975 O.3     1  UNL1       -0.4729
     20 C         140.5134  141.2143  166.8477 C.3     1  UNL1        0.2321
     21 C         141.0597  140.4733  168.0319 C.3     1  UNL1        0.1329
     22 C         142.3668  139.7393  168.0865 C.3     1  UNL1        0.0334
     23 C         142.5097  139.1485  169.4579 C.3     1  UNL1        0.0321
     24 C         141.2910  139.5173  170.2508 C.3     1  UNL1        0.1153
     25 C         139.9840  140.2513  170.1962 C.3     1  UNL1        0.0321
     26 C         139.8410  140.8421  168.8249 C.3     1  UNL1        0.0334
     27 O         140.3948  140.3361  169.3696 O.3     1  UNL1       -0.3574
     28 C         142.6904  137.2366  157.4877 C.3     1  UNL1        0.0613
     29 C         142.8657  138.7126  157.2861 C.3     1  UNL1        0.0387
     30 C         142.7516  138.9282  158.7662 C.3     1  UNL1        0.0896
     31 C         142.5763  137.4523  158.9677 C.3     1  UNL1        0.0387
     32 C         141.3914  132.2906  152.8942 C.3     1  UNL1        0.0948
     33 C         142.5175  132.4516  153.8719 C.2     1  UNL1        0.2262
     34 O         143.6004  131.4163  153.9456 O.2     1  UNL1       -0.2749
     35 N         142.5607  133.6478  154.7758 N.am    1  UNL1       -0.2767
     36 C         141.4778  134.6832  154.7021 C.3     1  UNL1        0.1107
     37 C         141.5210  135.8794  155.6061 C.3     1  UNL1        0.0939
     38 N         142.6472  136.0403  156.5837 N.3     1  UNL1       -0.2710
     39 C         143.7301  135.0050  156.6575 C.3     1  UNL1        0.0939
     40 C         143.6869  133.8088  155.7536 C.3     1  UNL1        0.1107
@<TRIPOS>BOND
     1    32    33    1
     2    33    34    2
     3    33    35   am
     4    35    36    1
     5    36    37    1
     6    37    38    1
     7    28    38    1
     8    28    29    1
     9    29    30    1
    10    30     1    1
    11     1     2   ar
    12     2     3   ar
    13     3    13    1
    14    13    14   ar
    15    14    15   ar
    16    15    16   ar
    17    16    17   ar
    18    17    19    1
    19    19    20    1
    20    20    21    1
    21    21    22    1
    22    22    23    1
    23    23    24    1
    24    24    25    1
    25    25    26    1
    26    24    27    1
    27    17    18   ar
    28     3     4   ar
    29     4     5   ar
    30     5     6    1
    31     5     7   ar
    32     7     8   ar
    33     8     9   ar
    34     9    10   ar
    35    30    31    1
    36    38    39    1
    37    39    40    1
    38    40    35    1
    39    31    28    1
    40    10     1   ar
    41    18    13   ar
    42    10     4   ar
    43    26    21    1
    44    27    21    1
    45     6    11    1
    46     6    12    1
@<TRIPOS>MOLECULE
*****
 40 46 0 0 0
SMALL
GASTEIGER

@<TRIPOS>ATOM
      1 N         139.2409  141.8136  160.7621 N.ar    1  UNL1       -0.3132
      2 C         138.7350  140.7706  159.8101 C.ar    1  UNL1        0.0771
      3 C         138.7715  141.3491  158.4266 C.ar    1  UNL1        0.0229
      4 C         139.3000  142.7495  158.5235 C.ar    1  UNL1        0.0668
      5 C         139.5545  143.8004  157.4839 C.ar    1  UNL1        0.1300
      6 N         139.2644  143.5133  156.0405 N.pl3   1  UNL1       -0.3425
      7 N         140.0991  145.1384  157.8877 N.ar    1  UNL1       -0.2094
      8 C         140.3892  145.4256  159.3311 C.ar    1  UNL1        0.2014
      9 N         140.1346  144.3747  160.3707 N.ar    1  UNL1       -0.2065
     10 C         139.5900  143.0367  159.9669 C.ar    1  UNL1        0.1482
     11 H         138.9070  142.6351  155.7755 H       1  UNL1        0.1437
     12 H         139.4315  144.2030  155.3581 H       1  UNL1        0.1437
     13 C         138.3531  140.6498  157.1673 C.ar    1  UNL1        0.0046
     14 C         139.2868  139.6838  156.5000 C.ar    1  UNL1        0.0003
     15 C         138.8684  138.9845  155.2407 C.ar    1  UNL1        0.0031
     16 C         137.5162  139.2512  154.6486 C.ar    1  UNL1        0.0369
     17 C         136.5825  140.2171  155.3158 C.ar    1  UNL1        0.1387
     18 C         137.0010  140.9164  156.5752 C.ar    1  UNL1        0.0369
     19 O         135.2304  140.4837  154.7237 O.3     1  UNL1       -0.4729
     20 C         134.1979  141.2286  155.5169 C.3     1  UNL1        0.2321
     21 C         133.1062  140.4774  156.2196 C.3     1  UNL1        0.1329
     22 C         133.2960  139.3580  157.2000 C.3     1  UNL1        0.0334
     23 C         131.9400  138.9024  157.6515 C.3     1  UNL1        0.0321
     24 C         130.9122  139.7402  156.9503 C.3     1  UNL1        0.1153
     25 C         130.7225  140.8596  155.9699 C.3     1  UNL1        0.0321
     26 C         132.0784  141.3151  155.5184 C.3     1  UNL1        0.0334
     27 O         131.6329  140.7136  156.0653 O.3     1  UNL1       -0.3574
     28 C         139.5626  141.4441  164.3501 C.3     1  UNL1        0.0613
     29 C         138.5548  142.0739  163.4349 C.3     1  UNL1        0.0387
     30 C         139.3742  141.6605  162.2483 C.3     1  UNL1        0.0896
     31 C         140.3819  141.0307  163.1635 C.3     1  UNL1        0.0387
     32 C         140.7659  141.9036  171.1023 C.3     1  UNL1        0.0948
     33 C         140.0958  140.8315  170.2949 C.2     1  UNL1        0.2262
     34 O         139.5591  139.6064  170.9737 O.2     1  UNL1       -0.2749
     35 N         139.9626  140.9848  168.8087 N.am    1  UNL1       -0.2767
     36 C         140.4993  142.2099  168.1298 C.3     1  UNL1        0.1107
     37 C         140.3660  142.3630  166.6436 C.3     1  UNL1        0.0939
     38 N         139.6959  141.2910  165.8363 N.3     1  UNL1       -0.2710
     39 C         139.1592  140.0658  166.5152 C.3     1  UNL1        0.0939
     40 C         139.2925  139.9127  168.0013 C.3     1  UNL1        0.1107
@<TRIPOS>BOND
     1    32    33    1
     2    33    34    2
     3    33    35   am
     4    35    36    1
     5    36    37    1
     6    37    38    1
     7    28    38    1
     8    28    29    1
     9    29    30    1
    10    30     1    1
    11     1     2   ar
    12     2     3   ar
    13     3    13    1
    14    13    14   ar
    15    14    15   ar
    16    15    16   ar
    17    16    17   ar
    18    17    19    1
    19    19    20    1
    20    20    21    1
    21    21    22    1
    22    22    23    1
    23    23    24    1
    24    24    25    1
    25    25    26    1
    26    24    27    1
    27    17    18   ar
    28     3     4   ar
    29     4     5   ar
    30     5     6    1
    31     5     7   ar
    32     7     8   ar
    33     8     9   ar
    34     9    10   ar
    35    30    31    1
    36    38    39    1
    37    39    40    1
    38    40    35    1
    39    31    28    1
    40    10     1   ar
    41    18    13   ar
    42    10     4   ar
    43    26    21    1
    44    27    21    1
    45     6    11    1
    46     6    12    1
@<TRIPOS>MOLECULE
*****
 40 46 0 0 0
SMALL
GASTEIGER

@<TRIPOS>ATOM
      1 N         142.8720  139.4633  160.4613 N.ar    1  UNL1       -0.3132
      2 C         142.2664  138.2604  159.8008 C.ar    1  UNL1        0.0771
      3 C         142.5078  138.3714  158.3246 C.ar    1  UNL1        0.0229
      4 C         143.2626  139.6430  158.0727 C.ar    1  UNL1        0.0668
      5 C         143.7741  140.2735  156.8114 C.ar    1  UNL1        0.1300
      6 N         143.5490  139.5987  155.4908 N.pl3   1  UNL1       -0.3425
      7 N         144.5106  141.5788  156.8707 N.ar    1  UNL1       -0.2094
      8 C         144.7357  142.2537  158.1913 C.ar    1  UNL1        0.2014
      9 N         144.2242  141.6231  159.4526 N.ar    1  UNL1       -0.2065
     10 C         143.4877  140.3178  159.3932 C.ar    1  UNL1        0.1482
     11 H         143.0656  138.7419  155.4519 H       1  UNL1        0.1437
     12 H         143.8847  140.0125  154.6630 H       1  UNL1        0.1437
     13 C         142.0711  137.3843  157.2830 C.ar    1  UNL1        0.0046
     14 C         140.7457  137.5510  156.6006 C.ar    1  UNL1        0.0003
     15 C         140.3090  136.5638  155.5591 C.ar    1  UNL1        0.0031
     16 C         141.1976  135.4100  155.1999 C.ar    1  UNL1        0.0369
     17 C         142.5230  135.2433  155.8823 C.ar    1  UNL1        0.1387
     18 C         142.9597  136.2305  156.9238 C.ar    1  UNL1        0.0369
     19 O         143.4116  134.0895  155.5231 O.3     1  UNL1       -0.4729
     20 C         142.8667  132.6920  155.5320 C.3     1  UNL1        0.2321
     21 C         143.4520  131.6646  156.4548 C.3     1  UNL1        0.1329
     22 C         142.9774  130.2506  156.6148 C.3     1  UNL1        0.0334
     23 C         143.8469  129.5829  157.6386 C.3     1  UNL1        0.0321
     24 C         144.8588  130.5841  158.1114 C.3     1  UNL1        0.1153
     25 C         145.3334  131.9980  157.9514 C.3     1  UNL1        0.0321
     26 C         144.4640  132.6658  156.9276 C.3     1  UNL1        0.0334
     27 O         144.6148  131.8707  157.3798 O.3     1  UNL1       -0.3574
     28 C         142.8512  140.1789  164.0112 C.3     1  UNL1        0.0613
     29 C         141.8371  140.2526  162.9084 C.3     1  UNL1        0.0387
     30 C         142.8634  139.7597  161.9317 C.3     1  UNL1        0.0896
     31 C         143.8775  139.6861  163.0345 C.3     1  UNL1        0.0387
     32 C         142.9856  142.7750  170.3746 C.3     1  UNL1        0.0948
     33 C         142.8168  141.3645  169.8927 C.2     1  UNL1        0.2262
     34 O         142.6395  140.2504  170.8814 O.2     1  UNL1       -0.2749
     35 N         142.8254  141.0682  168.4224 N.am    1  UNL1       -0.2767
     36 C         143.0028  142.1822  167.4337 C.3     1  UNL1        0.1107
     37 C         143.0114  141.8858  165.9633 C.3     1  UNL1        0.0939
     38 N         142.8426  140.4754  165.4816 N.3     1  UNL1       -0.2710
     39 C         142.6652  139.3613  166.4702 C.3     1  UNL1        0.0939
     40 C         142.6566  139.6577  167.9405 C.3     1  UNL1        0.1107
@<TRIPOS>BOND
     1    32    33    1
     2    33    34    2
     3    33    35   am
     4    35    36    1
     5    36    37    1
     6    37    38    1
     7    28    38    1
     8    28    29    1
     9    29    30    1
    10    30     1    1
    11     1     2   ar
    12     2     3   ar
    13     3    13    1
    14    13    14   ar
    15    14    15   ar
    16    15    16   ar
    17    16    17   ar
    18    17    19    1
    19    19    20    1
    20    20    21    1
    21    21    22    1
    22    22    23    1
    23    23    24    1
    24    24    25    1
    25    25    26    1
    26    24    27    1
    27    17    18   ar
    28     3     4   ar
    29     4     5   ar
    30     5     6    1
    31     5     7   ar
    32     7     8   ar
    33     8     9   ar
    34     9    10   ar
    35    30    31    1
    36    38    39    1
    37    39    40    1
    38    40    35    1
    39    31    28    1
    40    10     1   ar
    41    18    13   ar
    42    10     4   ar
    43    26    21    1
    44    27    21    1
    45     6    11    1
    46     6    12    1
@<TRIPOS>MOLECULE
*****
 40 46 0 0 0
SMALL
GASTEIGER

@<TRIPOS>ATOM
      1 N         139.5470  142.4734  159.1006 N.ar    1  UNL1       -0.3132
      2 C         139.4979  142.5211  160.5990 C.ar    1  UNL1        0.0771
      3 C         139.4579  141.1101  161.1065 C.ar    1  UNL1        0.0229
      4 C         139.4823  140.1904  159.9218 C.ar    1  UNL1        0.0668
      5 C         139.4615  138.6947  159.8117 C.ar    1  UNL1        0.1300
      6 N         139.4064  137.8521  161.0515 N.pl3   1  UNL1       -0.3425
      7 N         139.4957  138.0415  158.4619 N.ar    1  UNL1       -0.2094
      8 C         139.5508  138.8840  157.2221 C.ar    1  UNL1        0.2014
      9 N         139.5716  140.3798  157.3322 N.ar    1  UNL1       -0.2065
     10 C         139.5374  141.0330  158.6820 C.ar    1  UNL1        0.1482
     11 H         139.3839  138.2808  161.9374 H       1  UNL1        0.1437
     12 H         139.3927  136.8703  160.9792 H       1  UNL1        0.1437
     13 C         139.4031  140.6921  162.5461 C.ar    1  UNL1        0.0046
     14 C         138.1239  140.8265  163.3179 C.ar    1  UNL1        0.0003
     15 C         138.0691  140.4085  164.7575 C.ar    1  UNL1        0.0031
     16 C         139.2934  139.8562  165.4252 C.ar    1  UNL1        0.0369
     17 C         140.5726  139.7219  164.6534 C.ar    1  UNL1        0.1387
     18 C         140.6274  140.1399  163.2139 C.ar    1  UNL1        0.0369
     19 O         141.7970  139.1697  165.3212 O.3     1  UNL1       -0.4729
     20 C         142.7616  140.0947  166.0022 C.3     1  UNL1        0.2321
     21 C         143.7969  140.8235  165.1978 C.3     1  UNL1        0.1329
     22 C         144.7837  140.1981  164.2570 C.3     1  UNL1        0.0334
     23 C         145.6238  141.2939  163.6707 C.3     1  UNL1        0.0321
     24 C         145.1561  142.5965  164.2492 C.3     1  UNL1        0.1153
     25 C         144.1693  143.2218  165.1900 C.3     1  UNL1        0.0321
     26 C         143.3292  142.1261  165.7763 C.3     1  UNL1        0.0334
     27 O         144.0270  142.3058  165.1930 O.3     1  UNL1       -0.3574
     28 C         139.6677  145.3336  156.8827 C.3     1  UNL1        0.0613
     29 C         139.0615  143.9632  156.8143 C.3     1  UNL1        0.0387
     30 C         139.5970  143.6581  158.1820 C.3     1  UNL1        0.0896
     31 C         140.2031  145.0285  158.2503 C.3     1  UNL1        0.0387
     32 C         140.7142  150.0270  151.9708 C.3     1  UNL1        0.0948
     33 C         139.8676  150.0726  153.2083 C.2     1  UNL1        0.2262
     34 O         139.0709  151.3029  153.5270 O.2     1  UNL1       -0.2749
     35 N         139.8177  148.8878  154.1268 N.am    1  UNL1       -0.2767
     36 C         140.6143  147.6575  153.8081 C.3     1  UNL1        0.1107
     37 C         140.5643  146.4727  154.7267 C.3     1  UNL1        0.0939
     38 N         139.7177  146.5183  155.9641 N.3     1  UNL1       -0.2710
     39 C         138.9210  147.7487  156.2828 C.3     1  UNL1        0.0939
     40 C         138.9710  148.9333  155.3642 C.3     1  UNL1        0.1107
@<TRIPOS>BOND
     1    32    33    1
     2    33    34    2
     3    33    35   am
     4    35    36    1
     5    36    37    1
     6    37    38    1
     7    28    38    1
     8    28    29    1
     9    29    30    1
    10    30     1    1
    11     1     2   ar
    12     2     3   ar
    13     3    13    1
    14    13    14   ar
    15    14    15   ar
    16    15    16   ar
    17    16    17   ar
    18    17    19    1
    19    19    20    1
    20    20    21    1
    21    21    22    1
    22    22    23    1
    23    23    24    1
    24    24    25    1
    25    25    26    1
    26    24    27    1
    27    17    18   ar
    28     3     4   ar
    29     4     5   ar
    30     5     6    1
    31     5     7   ar
    32     7     8   ar
    33     8     9   ar
    34     9    10   ar
    35    30    31    1
    36    38    39    1
    37    39    40    1
    38    40    35    1
    39    31    28    1
    40    10     1   ar
    41    18    13   ar
    42    10     4   ar
    43    26    21    1
    44    27    21    1
    45     6    11    1
    46     6    12    1
