@<TRIPOS>MOLECULE
*****
 30 33 0 0 0
SMALL
GASTEIGER

@<TRIPOS>ATOM
      1 C         141.2430  139.9440  167.1725 C.3     1  UNL1        0.2146
      2 C         140.2982  140.4647  168.2147 C.3     1  UNL1        0.0998
      3 C         140.9061  140.2069  169.5616 C.3     1  UNL1        0.2243
      4 C         142.2265  139.5268  169.3518 C.2     1  UNL1        0.3166
      5 N         143.1725  139.0865  170.4294 N.pl3   1  UNL1       -0.2481
      6 N         142.4347  139.3643  167.8753 N.2     1  UNL1       -0.0676
      7 H         142.9459  139.2381  171.3754 H       1  UNL1        0.2882
      8 H         144.0199  138.6460  170.1906 H       1  UNL1        0.2882
      9 C         143.4252  138.6904  163.4420 C.ar    1  UNL1        0.1387
     10 C         142.1739  137.9740  163.8555 C.ar    1  UNL1        0.0367
     11 C         141.4465  138.3919  165.0990 C.ar    1  UNL1        0.0032
     12 C         141.9704  139.5261  165.9290 C.ar    1  UNL1        0.0259
     13 C         143.2217  140.2425  165.5155 C.ar    1  UNL1        0.0032
     14 C         143.9491  139.8246  164.2720 C.ar    1  UNL1        0.0367
     15 C         144.0434  139.0997  160.9520 C.3     1  UNL1        0.2525
     16 O         144.1526  138.2726  162.1985 O.3     1  UNL1       -0.4714
     17 C         140.2034  140.4363  166.2098 C.ar    1  UNL1        0.0257
     18 C         138.9331  139.6621  166.0170 C.ar    1  UNL1        0.0000
     19 C         137.8936  140.1544  165.0543 C.ar    1  UNL1       -0.0002
     20 C         138.1242  141.4209  164.2844 C.ar    1  UNL1        0.0000
     21 C         139.3943  142.1951  164.4771 C.ar    1  UNL1        0.0013
     22 C         140.4340  141.7028  165.4399 C.ar    1  UNL1        0.0001
     23 C         139.6249  143.4616  163.7072 C.ar    1  UNL1        0.0192
     24 C         140.9750  144.1150  163.7252 C.ar    1  UNL1        0.0031
     25 C         141.2056  145.3815  162.9552 C.ar    1  UNL1        0.0207
     26 C         140.0861  145.9946  162.1673 C.ar    1  UNL1        0.0989
     27 N         138.7360  145.3413  162.1493 N.ar    1  UNL1       -0.2423
     28 C         138.5054  144.0747  162.9193 C.ar    1  UNL1        0.0988
     29 O         140.2999  140.5661  170.8859 O.3     1  UNL1       -0.3416
     30 C         140.5551  141.9170  171.4858 C.3     1  UNL1        0.1748
@<TRIPOS>BOND
     1    15    16    1
     2    16     9    1
     3     9    10   ar
     4    10    11   ar
     5    11    12   ar
     6    12     1    1
     7     1    17    1
     8    17    18   ar
     9    18    19   ar
    10    19    20   ar
    11    20    21   ar
    12    21    23    1
    13    23    24   ar
    14    24    25   ar
    15    25    26   ar
    16    26    27   ar
    17    27    28   ar
    18    21    22   ar
    19     1     2    1
    20     2     3    1
    21     3    29    1
    22    29    30    1
    23     3     4    1
    24     4     5    1
    25     4     6    2
    26    12    13   ar
    27    13    14   ar
    28    14     9   ar
    29     6     1    1
    30    22    17   ar
    31    28    23   ar
    32     5     7    1
    33     5     8    1
@<TRIPOS>MOLECULE
*****
 30 33 0 0 0
SMALL
GASTEIGER

@<TRIPOS>ATOM
      1 C         141.2255  140.6270  167.5996 C.3     1  UNL1        0.2146
      2 C         139.9539  140.3898  168.3589 C.3     1  UNL1        0.0998
      3 C         140.3144  140.0819  169.7821 C.3     1  UNL1        0.2243
      4 C         141.8088  140.1290  169.9023 C.2     1  UNL1        0.3166
      5 N         142.6010  139.8824  171.1519 N.pl3   1  UNL1       -0.2481
      6 N         142.3719  140.4658  168.5534 N.2     1  UNL1       -0.0676
      7 H         142.1382  139.6666  171.9936 H       1  UNL1        0.2882
      8 H         143.5838  139.9363  171.1304 H       1  UNL1        0.2882
      9 C         144.4629  141.4770  164.5918 C.ar    1  UNL1        0.1387
     10 C         143.8347  140.1163  164.6532 C.ar    1  UNL1        0.0367
     11 C         142.7555  139.8330  165.6558 C.ar    1  UNL1        0.0032
     12 C         142.3046  140.9103  166.5970 C.ar    1  UNL1        0.0259
     13 C         142.9329  142.2710  166.5357 C.ar    1  UNL1        0.0032
     14 C         144.0120  142.5543  165.5331 C.ar    1  UNL1        0.0367
     15 C         145.1817  142.0656  162.1656 C.3     1  UNL1        0.2525
     16 O         145.5421  141.7603  163.5892 O.3     1  UNL1       -0.4714
     17 C         140.3047  140.8474  166.4362 C.ar    1  UNL1        0.0257
     18 C         139.2763  139.8128  166.0871 C.ar    1  UNL1        0.0000
     19 C         138.3555  140.0332  164.9238 C.ar    1  UNL1       -0.0002
     20 C         138.4631  141.2882  164.1094 C.ar    1  UNL1        0.0000
     21 C         139.4915  142.3229  164.4584 C.ar    1  UNL1        0.0013
     22 C         140.4123  142.1025  165.6218 C.ar    1  UNL1        0.0001
     23 C         139.5991  143.5779  163.6440 C.ar    1  UNL1        0.0192
     24 C         140.9106  144.2995  163.5478 C.ar    1  UNL1        0.0031
     25 C         141.0183  145.5545  162.7334 C.ar    1  UNL1        0.0207
     26 C         139.8143  146.0881  162.0152 C.ar    1  UNL1        0.0989
     27 N         138.5027  145.3666  162.1113 N.ar    1  UNL1       -0.2423
     28 C         138.3951  144.1114  162.9258 C.ar    1  UNL1        0.0988
     29 O         139.3498  139.7801  170.8905 O.3     1  UNL1       -0.3416
     30 C         137.8739  139.7867  170.6228 C.3     1  UNL1        0.1748
@<TRIPOS>BOND
     1    15    16    1
     2    16     9    1
     3     9    10   ar
     4    10    11   ar
     5    11    12   ar
     6    12     1    1
     7     1    17    1
     8    17    18   ar
     9    18    19   ar
    10    19    20   ar
    11    20    21   ar
    12    21    23    1
    13    23    24   ar
    14    24    25   ar
    15    25    26   ar
    16    26    27   ar
    17    27    28   ar
    18    21    22   ar
    19     1     2    1
    20     2     3    1
    21     3    29    1
    22    29    30    1
    23     3     4    1
    24     4     5    1
    25     4     6    2
    26    12    13   ar
    27    13    14   ar
    28    14     9   ar
    29     6     1    1
    30    22    17   ar
    31    28    23   ar
    32     5     7    1
    33     5     8    1
@<TRIPOS>MOLECULE
*****
 30 33 0 0 0
SMALL
GASTEIGER

@<TRIPOS>ATOM
      1 C         141.4969  141.2534  167.6827 C.3     1  UNL1        0.2146
      2 C         141.6586  140.0837  168.6077 C.3     1  UNL1        0.0998
      3 C         142.7685  140.4004  169.5659 C.3     1  UNL1        0.2243
      4 C         143.2926  141.7659  169.2330 C.2     1  UNL1        0.3166
      5 N         144.4070  142.4789  169.9400 N.pl3   1  UNL1       -0.2481
      6 N         142.5068  142.2931  168.0692 N.2     1  UNL1       -0.0676
      7 H         144.8646  142.0480  170.6977 H       1  UNL1        0.2882
      8 H         144.6808  143.3778  169.6462 H       1  UNL1        0.2882
      9 C         140.3273  144.2412  164.5275 C.ar    1  UNL1        0.1387
     10 C         141.6539  143.5458  164.4470 C.ar    1  UNL1        0.0367
     11 C         142.0438  142.5499  165.4987 C.ar    1  UNL1        0.0032
     12 C         141.1071  142.2493  166.6310 C.ar    1  UNL1        0.0259
     13 C         139.7805  142.9447  166.7116 C.ar    1  UNL1        0.0032
     14 C         139.3906  143.9406  165.6598 C.ar    1  UNL1        0.0367
     15 C         138.8519  144.9060  162.4951 C.3     1  UNL1        0.2525
     16 O         139.9375  145.2371  163.4758 O.3     1  UNL1       -0.4714
     17 C         140.4055  140.4220  167.0764 C.ar    1  UNL1        0.0257
     18 C         139.2678  139.9414  167.9277 C.ar    1  UNL1        0.0000
     19 C         138.1765  139.1101  167.3214 C.ar    1  UNL1       -0.0002
     20 C         138.2228  138.7592  165.8637 C.ar    1  UNL1        0.0000
     21 C         139.3605  139.2397  165.0124 C.ar    1  UNL1        0.0013
     22 C         140.4518  140.0712  165.6188 C.ar    1  UNL1        0.0001
     23 C         139.4068  138.8889  163.5548 C.ar    1  UNL1        0.0192
     24 C         138.2883  139.3069  162.6468 C.ar    1  UNL1        0.0031
     25 C         138.3346  138.9561  161.1892 C.ar    1  UNL1        0.0207
     26 C         139.4994  138.1871  160.6394 C.ar    1  UNL1        0.0989
     27 N         140.6179  137.7691  161.5474 N.ar    1  UNL1       -0.2423
     28 C         140.5715  138.1200  163.0051 C.ar    1  UNL1        0.0988
     29 O         143.2666  139.5083  170.6640 O.3     1  UNL1       -0.3416
     30 C         143.1885  138.0180  170.5132 C.3     1  UNL1        0.1748
@<TRIPOS>BOND
     1    15    16    1
     2    16     9    1
     3     9    10   ar
     4    10    11   ar
     5    11    12   ar
     6    12     1    1
     7     1    17    1
     8    17    18   ar
     9    18    19   ar
    10    19    20   ar
    11    20    21   ar
    12    21    23    1
    13    23    24   ar
    14    24    25   ar
    15    25    26   ar
    16    26    27   ar
    17    27    28   ar
    18    21    22   ar
    19     1     2    1
    20     2     3    1
    21     3    29    1
    22    29    30    1
    23     3     4    1
    24     4     5    1
    25     4     6    2
    26    12    13   ar
    27    13    14   ar
    28    14     9   ar
    29     6     1    1
    30    22    17   ar
    31    28    23   ar
    32     5     7    1
    33     5     8    1
@<TRIPOS>MOLECULE
*****
 30 33 0 0 0
SMALL
GASTEIGER

@<TRIPOS>ATOM
      1 C         140.9355  140.8047  167.7478 C.3     1  UNL1        0.2146
      2 C         141.6300  141.8057  168.6227 C.3     1  UNL1        0.0998
      3 C         141.3059  141.4774  170.0501 C.3     1  UNL1        0.2243
      4 C         140.4111  140.2736  170.0572 C.2     1  UNL1        0.3166
      5 N         139.8448  139.6032  171.2737 N.pl3   1  UNL1       -0.2481
      6 N         140.1822  139.8578  168.6343 N.2     1  UNL1       -0.0676
      7 H         140.0537  139.9522  172.1702 H       1  UNL1        0.2882
      8 H         139.2641  138.8142  171.1755 H       1  UNL1        0.2882
      9 C         139.2508  138.2855  164.4213 C.ar    1  UNL1        0.1387
     10 C         140.7190  138.2420  164.7253 C.ar    1  UNL1        0.0367
     11 C         141.2805  139.0817  165.8341 C.ar    1  UNL1        0.0032
     12 C         140.3739  139.9650  166.6389 C.ar    1  UNL1        0.0259
     13 C         138.9057  140.0085  166.3350 C.ar    1  UNL1        0.0032
     14 C         138.3441  139.1688  165.2261 C.ar    1  UNL1        0.0367
     15 C         138.2005  138.0966  162.0525 C.3     1  UNL1        0.2525
     16 O         138.6892  137.4458  163.3125 O.3     1  UNL1       -0.4714
     17 C         141.5713  141.5761  166.6294 C.ar    1  UNL1        0.0257
     18 C         143.0524  141.4916  166.4072 C.ar    1  UNL1        0.0000
     19 C         143.6882  142.2630  165.2890 C.ar    1  UNL1       -0.0002
     20 C         142.8430  143.1188  164.3928 C.ar    1  UNL1        0.0000
     21 C         141.3620  143.2034  164.6149 C.ar    1  UNL1        0.0013
     22 C         140.7262  142.4320  165.7332 C.ar    1  UNL1        0.0001
     23 C         140.5169  144.0592  163.7187 C.ar    1  UNL1        0.0192
     24 C         141.1464  145.1681  162.9287 C.ar    1  UNL1        0.0031
     25 C         140.3012  146.0240  162.0325 C.ar    1  UNL1        0.0207
     26 C         138.8264  145.7710  161.9263 C.ar    1  UNL1        0.0989
     27 N         138.1969  144.6622  162.7164 N.ar    1  UNL1       -0.2423
     28 C         139.0422  143.8063  163.6126 C.ar    1  UNL1        0.0988
     29 O         141.7914  142.2223  171.2582 O.3     1  UNL1       -0.3416
     30 C         142.7817  143.3382  171.1035 C.3     1  UNL1        0.1748
@<TRIPOS>BOND
     1    15    16    1
     2    16     9    1
     3     9    10   ar
     4    10    11   ar
     5    11    12   ar
     6    12     1    1
     7     1    17    1
     8    17    18   ar
     9    18    19   ar
    10    19    20   ar
    11    20    21   ar
    12    21    23    1
    13    23    24   ar
    14    24    25   ar
    15    25    26   ar
    16    26    27   ar
    17    27    28   ar
    18    21    22   ar
    19     1     2    1
    20     2     3    1
    21     3    29    1
    22    29    30    1
    23     3     4    1
    24     4     5    1
    25     4     6    2
    26    12    13   ar
    27    13    14   ar
    28    14     9   ar
    29     6     1    1
    30    22    17   ar
    31    28    23   ar
    32     5     7    1
    33     5     8    1
@<TRIPOS>MOLECULE
*****
 30 33 0 0 0
SMALL
GASTEIGER

@<TRIPOS>ATOM
      1 C         140.3496  141.2362  167.3047 C.3     1  UNL1        0.2146
      2 C         140.8378  142.3491  168.1839 C.3     1  UNL1        0.0998
      3 C         140.9024  141.8337  169.5912 C.3     1  UNL1        0.2243
      4 C         140.4541  140.4023  169.5816 C.2     1  UNL1        0.3166
      5 N         140.3634  139.4988  170.7755 N.pl3   1  UNL1       -0.2481
      6 N         140.1125  140.0330  168.1685 N.2     1  UNL1       -0.0676
      7 H         140.6112  139.8349  171.6671 H       1  UNL1        0.2882
      8 H         140.0562  138.5697  170.6675 H       1  UNL1        0.2882
      9 C         138.9736  138.5341  163.9798 C.ar    1  UNL1        0.1387
     10 C         140.2529  138.2390  164.7053 C.ar    1  UNL1        0.0367
     11 C         140.7115  139.1397  165.8136 C.ar    1  UNL1        0.0032
     12 C         139.8909  140.3355  166.1964 C.ar    1  UNL1        0.0259
     13 C         138.6117  140.6307  165.4709 C.ar    1  UNL1        0.0032
     14 C         138.1531  139.7299  164.3626 C.ar    1  UNL1        0.0367
     15 C         137.7614  138.2022  161.7059 C.3     1  UNL1        0.2525
     16 O         138.5150  137.6334  162.8715 O.3     1  UNL1       -0.4714
     17 C         140.4908  142.2512  166.2092 C.ar    1  UNL1        0.0257
     18 C         139.5663  143.4312  166.1562 C.ar    1  UNL1        0.0000
     19 C         139.7075  144.4460  165.0608 C.ar    1  UNL1       -0.0002
     20 C         140.7733  144.2809  164.0183 C.ar    1  UNL1        0.0000
     21 C         141.6978  143.1010  164.0712 C.ar    1  UNL1        0.0013
     22 C         141.5566  142.0861  165.1667 C.ar    1  UNL1        0.0001
     23 C         142.7636  142.9359  163.0287 C.ar    1  UNL1        0.0192
     24 C         144.0297  142.2029  163.3600 C.ar    1  UNL1        0.0031
     25 C         145.0955  142.0378  162.3175 C.ar    1  UNL1        0.0207
     26 C         144.8952  142.6057  160.9436 C.ar    1  UNL1        0.0989
     27 N         143.6291  143.3387  160.6123 N.ar    1  UNL1       -0.2423
     28 C         142.5633  143.5038  161.6549 C.ar    1  UNL1        0.0988
     29 O         141.3387  142.6129  170.7964 O.3     1  UNL1       -0.3416
     30 C         142.6648  143.3138  170.7967 C.3     1  UNL1        0.1748
@<TRIPOS>BOND
     1    15    16    1
     2    16     9    1
     3     9    10   ar
     4    10    11   ar
     5    11    12   ar
     6    12     1    1
     7     1    17    1
     8    17    18   ar
     9    18    19   ar
    10    19    20   ar
    11    20    21   ar
    12    21    23    1
    13    23    24   ar
    14    24    25   ar
    15    25    26   ar
    16    26    27   ar
    17    27    28   ar
    18    21    22   ar
    19     1     2    1
    20     2     3    1
    21     3    29    1
    22    29    30    1
    23     3     4    1
    24     4     5    1
    25     4     6    2
    26    12    13   ar
    27    13    14   ar
    28    14     9   ar
    29     6     1    1
    30    22    17   ar
    31    28    23   ar
    32     5     7    1
    33     5     8    1
@<TRIPOS>MOLECULE
*****
 30 33 0 0 0
SMALL
GASTEIGER

@<TRIPOS>ATOM
      1 C         140.0339  141.7129  166.9851 C.3     1  UNL1        0.2146
      2 C         140.2369  140.7017  168.0742 C.3     1  UNL1        0.0998
      3 C         140.4876  141.4429  169.3540 C.3     1  UNL1        0.2243
      4 C         140.4395  142.9122  169.0558 C.2     1  UNL1        0.3166
      5 N         140.6372  144.0200  170.0476 N.pl3   1  UNL1       -0.2481
      6 N         140.1591  143.0791  167.5917 N.2     1  UNL1       -0.0676
      7 H         140.8174  143.8088  170.9921 H       1  UNL1        0.2882
      8 H         140.5866  144.9584  169.7540 H       1  UNL1        0.2882
      9 C         139.3149  143.9893  163.1705 C.ar    1  UNL1        0.1387
     10 C         140.6053  144.1622  163.9152 C.ar    1  UNL1        0.0367
     11 C         140.8450  143.4035  165.1867 C.ar    1  UNL1        0.0032
     12 C         139.7942  142.4717  165.7135 C.ar    1  UNL1        0.0259
     13 C         138.5037  142.2987  164.9688 C.ar    1  UNL1        0.0032
     14 C         138.2640  143.0575  163.6973 C.ar    1  UNL1        0.0367
     15 C         139.7267  146.0825  161.6877 C.3     1  UNL1        0.2525
     16 O         139.0752  144.7481  161.8989 O.3     1  UNL1       -0.4714
     17 C         139.8585  140.5054  166.1126 C.ar    1  UNL1        0.0257
     18 C         138.6636  139.6168  166.2931 C.ar    1  UNL1        0.0000
     19 C         138.4883  138.4094  165.4206 C.ar    1  UNL1       -0.0002
     20 C         139.5078  138.0905  164.3677 C.ar    1  UNL1        0.0000
     21 C         140.7027  138.9790  164.1871 C.ar    1  UNL1        0.0013
     22 C         140.8781  140.1865  165.0596 C.ar    1  UNL1        0.0001
     23 C         141.7223  138.6601  163.1341 C.ar    1  UNL1        0.0192
     24 C         143.1556  139.0548  163.3340 C.ar    1  UNL1        0.0031
     25 C         144.1751  138.7359  162.2810 C.ar    1  UNL1        0.0207
     26 C         143.7614  138.0223  161.0281 C.ar    1  UNL1        0.0989
     27 N         142.3281  137.6276  160.8283 N.ar    1  UNL1       -0.2423
     28 C         141.3085  137.9465  161.8813 C.ar    1  UNL1        0.0988
     29 O         140.7417  140.8235  170.6963 O.3     1  UNL1       -0.3416
     30 C         142.1177  140.8633  171.2922 C.3     1  UNL1        0.1748
@<TRIPOS>BOND
     1    15    16    1
     2    16     9    1
     3     9    10   ar
     4    10    11   ar
     5    11    12   ar
     6    12     1    1
     7     1    17    1
     8    17    18   ar
     9    18    19   ar
    10    19    20   ar
    11    20    21   ar
    12    21    23    1
    13    23    24   ar
    14    24    25   ar
    15    25    26   ar
    16    26    27   ar
    17    27    28   ar
    18    21    22   ar
    19     1     2    1
    20     2     3    1
    21     3    29    1
    22    29    30    1
    23     3     4    1
    24     4     5    1
    25     4     6    2
    26    12    13   ar
    27    13    14   ar
    28    14     9   ar
    29     6     1    1
    30    22    17   ar
    31    28    23   ar
    32     5     7    1
    33     5     8    1
@<TRIPOS>MOLECULE
*****
 30 33 0 0 0
SMALL
GASTEIGER

@<TRIPOS>ATOM
      1 C         140.9343  141.2994  167.1127 C.3     1  UNL1        0.2146
      2 C         141.0264  142.4761  168.0384 C.3     1  UNL1        0.0998
      3 C         140.2222  142.1643  169.2657 C.3     1  UNL1        0.2243
      4 C         139.6331  140.7950  169.0984 C.2     1  UNL1        0.3166
      5 N         138.7576  140.0850  170.0880 N.pl3   1  UNL1       -0.2481
      6 N         140.0732  140.2605  167.7677 N.2     1  UNL1       -0.0676
      7 H         138.5226  140.5208  170.9389 H       1  UNL1        0.2882
      8 H         138.4179  139.1832  169.8865 H       1  UNL1        0.2882
      9 C         141.2101  138.2896  163.7788 C.ar    1  UNL1        0.1387
     10 C         142.3530  138.4555  164.7359 C.ar    1  UNL1        0.0367
     11 C         142.2611  139.4588  165.8472 C.ar    1  UNL1        0.0032
     12 C         141.0262  140.2961  166.0014 C.ar    1  UNL1        0.0259
     13 C         139.8833  140.1302  165.0443 C.ar    1  UNL1        0.0032
     14 C         139.9752  139.1270  163.9330 C.ar    1  UNL1        0.0367
     15 C         141.9921  137.6479  161.3857 C.3     1  UNL1        0.2525
     16 O         141.3020  137.2863  162.6675 O.3     1  UNL1       -0.4714
     17 C         141.8147  142.1286  166.2253 C.ar    1  UNL1        0.0257
     18 C         143.2760  142.2651  166.5348 C.ar    1  UNL1        0.0000
     19 C         144.1563  143.0942  165.6474 C.ar    1  UNL1       -0.0002
     20 C         143.5753  143.7869  164.4505 C.ar    1  UNL1        0.0000
     21 C         142.1141  143.6504  164.1410 C.ar    1  UNL1        0.0013
     22 C         141.2337  142.8213  165.0284 C.ar    1  UNL1        0.0001
     23 C         141.5331  144.3431  162.9441 C.ar    1  UNL1        0.0192
     24 C         140.2834  145.1609  163.0840 C.ar    1  UNL1        0.0031
     25 C         139.7024  145.8536  161.8871 C.ar    1  UNL1        0.0207
     26 C         140.3711  145.7285  160.5502 C.ar    1  UNL1        0.0989
     27 N         141.6208  144.9107  160.4102 N.ar    1  UNL1       -0.2423
     28 C         142.2018  144.2180  161.6072 C.ar    1  UNL1        0.0988
     29 O         140.0393  143.0639  170.4520 O.3     1  UNL1       -0.3416
     30 C         140.2789  144.5387  170.3189 C.3     1  UNL1        0.1748
@<TRIPOS>BOND
     1    15    16    1
     2    16     9    1
     3     9    10   ar
     4    10    11   ar
     5    11    12   ar
     6    12     1    1
     7     1    17    1
     8    17    18   ar
     9    18    19   ar
    10    19    20   ar
    11    20    21   ar
    12    21    23    1
    13    23    24   ar
    14    24    25   ar
    15    25    26   ar
    16    26    27   ar
    17    27    28   ar
    18    21    22   ar
    19     1     2    1
    20     2     3    1
    21     3    29    1
    22    29    30    1
    23     3     4    1
    24     4     5    1
    25     4     6    2
    26    12    13   ar
    27    13    14   ar
    28    14     9   ar
    29     6     1    1
    30    22    17   ar
    31    28    23   ar
    32     5     7    1
    33     5     8    1
@<TRIPOS>MOLECULE
*****
 30 33 0 0 0
SMALL
GASTEIGER

@<TRIPOS>ATOM
      1 C         141.4597  140.8656  167.4516 C.3     1  UNL1        0.2146
      2 C         140.2120  140.7600  168.2776 C.3     1  UNL1        0.0998
      3 C         140.5502  140.0151  169.5349 C.3     1  UNL1        0.2243
      4 C         142.0068  139.6603  169.4859 C.2     1  UNL1        0.3166
      5 N         142.7677  138.9113  170.5395 N.pl3   1  UNL1       -0.2481
      6 N         142.5689  140.1859  168.1984 N.2     1  UNL1       -0.0676
      7 H         142.3082  138.6056  171.3548 H       1  UNL1        0.2882
      8 H         143.7266  138.7255  170.4158 H       1  UNL1        0.2882
      9 C         144.6461  141.6424  164.3705 C.ar    1  UNL1        0.1387
     10 C         144.2317  142.7337  165.3125 C.ar    1  UNL1        0.0367
     11 C         143.1696  142.4747  166.3395 C.ar    1  UNL1        0.0032
     12 C         142.5218  141.1245  166.4246 C.ar    1  UNL1        0.0259
     13 C         142.9362  140.0332  165.4826 C.ar    1  UNL1        0.0032
     14 C         143.9984  140.2922  164.4556 C.ar    1  UNL1        0.0367
     15 C         145.3247  142.1605  161.9167 C.3     1  UNL1        0.2525
     16 O         145.7082  141.9014  163.3435 O.3     1  UNL1       -0.4714
     17 C         140.5725  141.5994  166.4901 C.ar    1  UNL1        0.0257
     18 C         140.2512  143.0463  166.7207 C.ar    1  UNL1        0.0000
     19 C         139.3641  143.7801  165.7593 C.ar    1  UNL1       -0.0002
     20 C         138.7982  143.0670  164.5671 C.ar    1  UNL1        0.0000
     21 C         139.1194  141.6201  164.3364 C.ar    1  UNL1        0.0013
     22 C         140.0066  140.8863  165.2979 C.ar    1  UNL1        0.0001
     23 C         138.5535  140.9070  163.1443 C.ar    1  UNL1        0.0192
     24 C         138.4465  139.4108  163.1464 C.ar    1  UNL1        0.0031
     25 C         137.8806  138.6977  161.9542 C.ar    1  UNL1        0.0207
     26 C         137.4217  139.4808  160.7599 C.ar    1  UNL1        0.0989
     27 N         137.5288  140.9770  160.7578 N.ar    1  UNL1       -0.2423
     28 C         138.0947  141.6901  161.9501 C.ar    1  UNL1        0.0988
     29 O         139.5988  139.6833  170.6461 O.3     1  UNL1       -0.3416
     30 C         138.1335  139.9618  170.4871 C.3     1  UNL1        0.1748
@<TRIPOS>BOND
     1    15    16    1
     2    16     9    1
     3     9    10   ar
     4    10    11   ar
     5    11    12   ar
     6    12     1    1
     7     1    17    1
     8    17    18   ar
     9    18    19   ar
    10    19    20   ar
    11    20    21   ar
    12    21    23    1
    13    23    24   ar
    14    24    25   ar
    15    25    26   ar
    16    26    27   ar
    17    27    28   ar
    18    21    22   ar
    19     1     2    1
    20     2     3    1
    21     3    29    1
    22    29    30    1
    23     3     4    1
    24     4     5    1
    25     4     6    2
    26    12    13   ar
    27    13    14   ar
    28    14     9   ar
    29     6     1    1
    30    22    17   ar
    31    28    23   ar
    32     5     7    1
    33     5     8    1
@<TRIPOS>MOLECULE
*****
 30 33 0 0 0
SMALL
GASTEIGER

@<TRIPOS>ATOM
      1 C         141.5202  140.8939  167.5320 C.3     1  UNL1        0.2146
      2 C         142.7445  140.3660  168.2192 C.3     1  UNL1        0.0998
      3 C         142.3161  139.7404  169.5135 C.3     1  UNL1        0.2243
      4 C         140.8270  139.8817  169.6261 C.2     1  UNL1        0.3166
      5 N         139.9788  139.3955  170.7637 N.pl3   1  UNL1       -0.2481
      6 N         140.3351  140.5946  168.4015 N.2     1  UNL1       -0.0676
      7 H         140.3964  138.9358  171.5277 H       1  UNL1        0.2882
      8 H         139.0045  139.5359  170.7464 H       1  UNL1        0.2882
      9 C         138.4566  142.7463  164.8056 C.ar    1  UNL1        0.1387
     10 C         139.4452  143.6163  165.5237 C.ar    1  UNL1        0.0367
     11 C         140.4664  142.9988  166.4325 C.ar    1  UNL1        0.0032
     12 C         140.4990  141.5113  166.6232 C.ar    1  UNL1        0.0259
     13 C         139.5103  140.6414  165.9051 C.ar    1  UNL1        0.0032
     14 C         138.4891  141.2589  164.9963 C.ar    1  UNL1        0.0367
     15 C         137.8408  144.4414  162.9356 C.3     1  UNL1        0.2525
     16 O         137.4354  143.3638  163.8969 O.3     1  UNL1       -0.4714
     17 C         142.4918  141.3223  166.4724 C.ar    1  UNL1        0.0257
     18 C         143.3807  142.5079  166.7051 C.ar    1  UNL1        0.0000
     19 C         144.3522  142.9362  165.6457 C.ar    1  UNL1       -0.0002
     20 C         144.4348  142.1790  164.3535 C.ar    1  UNL1        0.0000
     21 C         143.5460  140.9935  164.1207 C.ar    1  UNL1        0.0013
     22 C         142.5744  140.5651  165.1803 C.ar    1  UNL1        0.0001
     23 C         143.6286  140.2363  162.8286 C.ar    1  UNL1        0.0192
     24 C         143.7204  138.7391  162.8411 C.ar    1  UNL1        0.0031
     25 C         143.8031  137.9819  161.5489 C.ar    1  UNL1        0.0207
     26 C         143.7939  138.7218  160.2441 C.ar    1  UNL1        0.0989
     27 N         143.7022  140.2190  160.2315 N.ar    1  UNL1       -0.2423
     28 C         143.6195  140.9762  161.5238 C.ar    1  UNL1        0.0988
     29 O         143.2184  139.0881  170.5187 O.3     1  UNL1       -0.3416
     30 C         143.3859  137.5975  170.5202 C.3     1  UNL1        0.1748
@<TRIPOS>BOND
     1    15    16    1
     2    16     9    1
     3     9    10   ar
     4    10    11   ar
     5    11    12   ar
     6    12     1    1
     7     1    17    1
     8    17    18   ar
     9    18    19   ar
    10    19    20   ar
    11    20    21   ar
    12    21    23    1
    13    23    24   ar
    14    24    25   ar
    15    25    26   ar
    16    26    27   ar
    17    27    28   ar
    18    21    22   ar
    19     1     2    1
    20     2     3    1
    21     3    29    1
    22    29    30    1
    23     3     4    1
    24     4     5    1
    25     4     6    2
    26    12    13   ar
    27    13    14   ar
    28    14     9   ar
    29     6     1    1
    30    22    17   ar
    31    28    23   ar
    32     5     7    1
    33     5     8    1
