@<TRIPOS>MOLECULE
*****
 28 31 0 0 0
SMALL
GASTEIGER

@<TRIPOS>ATOM
      1 C         140.0619  145.1917  157.1740 C.ar    1  UNL1        0.1535
      2 C         139.7222  143.9153  157.8849 C.ar    1  UNL1        0.0377
      3 C         140.5445  143.4678  159.0569 C.ar    1  UNL1        0.0243
      4 C         141.7065  144.2967  159.5181 C.ar    1  UNL1        0.1089
      5 N         142.0461  145.5731  158.8072 N.ar    1  UNL1       -0.1463
      6 N         141.2238  146.0206  157.6352 N.ar    1  UNL1       -0.1329
      7 C         142.5287  143.8493  160.6901 C.ar    1  UNL1        0.0488
      8 C         142.4621  144.4105  162.0795 C.ar    1  UNL1        0.0085
      9 C         143.4542  143.6701  162.9266 C.ar    1  UNL1        0.0065
     10 C         143.8264  143.7920  164.3746 C.ar    1  UNL1        0.0005
     11 C         144.8784  142.8951  164.9566 C.ar    1  UNL1        0.0000
     12 C         145.5582  141.8763  164.0906 C.ar    1  UNL1        0.0005
     13 C         145.1861  141.7544  162.6427 C.ar    1  UNL1        0.0065
     14 C         144.1340  142.6513  162.0607 C.ar    1  UNL1        0.0295
     15 S         143.5621  142.7620  160.6784 S.2     1  UNL1       -0.0854
     16 C         138.3274  144.6690  155.3118 C.3     1  UNL1        0.1135
     17 N         139.2396  145.6391  156.0020 N.pl3   1  UNL1       -0.2916
     18 C         139.3296  147.0568  155.5202 C.3     1  UNL1        0.0768
     19 C         138.7389  148.1661  156.3391 C.3     1  UNL1        0.0342
     20 C         138.8289  149.5838  155.8573 C.3     1  UNL1        0.0435
     21 C         138.6624  151.0742  155.8230 C.3     1  UNL1        0.0158
     22 C         138.0904  149.7931  157.1460 C.3     1  UNL1        0.0158
     23 N         139.5096  149.8921  154.5567 N.3     1  UNL1       -0.3015
     24 C         140.1002  148.7828  153.7378 C.3     1  UNL1        0.0435
     25 C         140.8075  148.0812  152.6165 C.3     1  UNL1        0.0158
     26 C         140.4358  149.9568  152.8666 C.3     1  UNL1        0.0158
     27 C         140.0103  147.3652  154.2196 C.3     1  UNL1        0.0342
     28 H         140.2695  150.5389  154.7681 H       1  UNL1        0.1231
@<TRIPOS>BOND
     1    16    17    1
     2    17     1    1
     3     1     2   ar
     4     2     3   ar
     5     3     4   ar
     6     4     7    1
     7     7     8   ar
     8     8     9   ar
     9     9    10   ar
    10    10    11   ar
    11    11    12   ar
    12    12    13   ar
    13    13    14   ar
    14    14    15   ar
    15     4     5   ar
    16     5     6   ar
    17    17    18    1
    18    18    19    1
    19    19    20    1
    20    20    21    1
    21    20    22    1
    22    20    23    1
    23    23    24    1
    24    24    25    1
    25    24    26    1
    26    24    27    1
    27     6     1   ar
    28    27    18    1
    29    15     7   ar
    30    14     9   ar
    31    23    28    1
@<TRIPOS>MOLECULE
*****
 28 31 0 0 0
SMALL
GASTEIGER

@<TRIPOS>ATOM
      1 C         141.4401  142.3562  164.4629 C.ar    1  UNL1        0.1535
      2 C         140.8200  143.7072  164.2625 C.ar    1  UNL1        0.0377
      3 C         140.4969  144.1863  162.8783 C.ar    1  UNL1        0.0243
      4 C         140.7940  143.3144  161.6945 C.ar    1  UNL1        0.1089
      5 N         141.4142  141.9635  161.8949 N.ar    1  UNL1       -0.1463
      6 N         141.7373  141.4844  163.2791 N.ar    1  UNL1       -0.1329
      7 C         140.4709  143.7935  160.3102 C.ar    1  UNL1        0.0488
      8 C         140.8131  145.1382  159.7403 C.ar    1  UNL1        0.0085
      9 C         140.3026  145.1878  158.3307 C.ar    1  UNL1        0.0065
     10 C         140.3516  146.2597  157.2826 C.ar    1  UNL1        0.0005
     11 C         139.7430  146.0176  155.9333 C.ar    1  UNL1        0.0000
     12 C         139.0853  144.7036  155.6320 C.ar    1  UNL1        0.0005
     13 C         139.0362  143.6317  156.6801 C.ar    1  UNL1        0.0065
     14 C         139.6449  143.8738  158.0295 C.ar    1  UNL1        0.0295
     15 S         139.7489  143.0121  159.2529 S.2     1  UNL1       -0.0854
     16 C         143.1139  142.1508  166.4394 C.3     1  UNL1        0.1135
     17 N         141.7632  141.8771  165.8471 N.pl3   1  UNL1       -0.2916
     18 C         140.7357  141.1243  166.6392 C.3     1  UNL1        0.0768
     19 C         140.6050  141.3606  168.1146 C.3     1  UNL1        0.0342
     20 C         139.5773  140.6078  168.9067 C.3     1  UNL1        0.0435
     21 C         138.7630  140.1423  170.0773 C.3     1  UNL1        0.0158
     22 C         140.1914  141.4353  169.9967 C.3     1  UNL1        0.0158
     23 N         138.6804  139.6186  168.2232 N.3     1  UNL1       -0.3015
     24 C         138.8112  139.3823  166.7477 C.3     1  UNL1        0.0435
     25 C         138.5540  138.8163  165.3827 C.3     1  UNL1        0.0158
     26 C         137.6942  138.4329  167.0657 C.3     1  UNL1        0.0158
     27 C         139.8387  140.1351  165.9557 C.3     1  UNL1        0.0342
     28 H         137.7223  139.9269  168.3883 H       1  UNL1        0.1231
@<TRIPOS>BOND
     1    16    17    1
     2    17     1    1
     3     1     2   ar
     4     2     3   ar
     5     3     4   ar
     6     4     7    1
     7     7     8   ar
     8     8     9   ar
     9     9    10   ar
    10    10    11   ar
    11    11    12   ar
    12    12    13   ar
    13    13    14   ar
    14    14    15   ar
    15     4     5   ar
    16     5     6   ar
    17    17    18    1
    18    18    19    1
    19    19    20    1
    20    20    21    1
    21    20    22    1
    22    20    23    1
    23    23    24    1
    24    24    25    1
    25    24    26    1
    26    24    27    1
    27     6     1   ar
    28    27    18    1
    29    15     7   ar
    30    14     9   ar
    31    23    28    1
@<TRIPOS>MOLECULE
*****
 28 31 0 0 0
SMALL
GASTEIGER

@<TRIPOS>ATOM
      1 C         141.4501  142.3170  164.4443 C.ar    1  UNL1        0.1535
      2 C         140.6626  143.5801  164.2589 C.ar    1  UNL1        0.0377
      3 C         140.3363  144.0646  162.8774 C.ar    1  UNL1        0.0243
      4 C         140.7976  143.2861  161.6811 C.ar    1  UNL1        0.1089
      5 N         141.5851  142.0230  161.8664 N.ar    1  UNL1       -0.1463
      6 N         141.9113  141.5384  163.2480 N.ar    1  UNL1       -0.1329
      7 C         140.4713  143.7706  160.2995 C.ar    1  UNL1        0.0488
      8 C         140.7538  145.1398  159.7557 C.ar    1  UNL1        0.0085
      9 C         140.2624  145.1864  158.3393 C.ar    1  UNL1        0.0065
     10 C         140.2729  146.2762  157.3087 C.ar    1  UNL1        0.0005
     11 C         139.6973  146.0257  155.9464 C.ar    1  UNL1        0.0000
     12 C         139.1112  144.6854  155.6147 C.ar    1  UNL1        0.0005
     13 C         139.1006  143.5956  156.6453 C.ar    1  UNL1        0.0065
     14 C         139.6762  143.8461  158.0076 C.ar    1  UNL1        0.0295
     15 S         139.8054  142.9711  159.2191 S.2     1  UNL1       -0.0854
     16 C         143.1351  142.0863  166.4083 C.3     1  UNL1        0.1135
     17 N         141.7763  141.8324  165.8259 N.pl3   1  UNL1       -0.2916
     18 C         140.7438  141.0941  166.6250 C.3     1  UNL1        0.0768
     19 C         139.8448  140.0994  165.9523 C.3     1  UNL1        0.0342
     20 C         138.8123  139.3610  166.7515 C.3     1  UNL1        0.0435
     21 C         137.6909  138.4201  167.0790 C.3     1  UNL1        0.0158
     22 C         138.5564  138.7780  165.3933 C.3     1  UNL1        0.0158
     23 N         138.6787  139.6173  168.2233 N.3     1  UNL1       -0.3015
     24 C         139.5777  140.6119  168.8961 C.3     1  UNL1        0.0435
     25 C         140.1922  141.4513  169.9767 C.3     1  UNL1        0.0158
     26 C         138.7586  140.1650  170.0705 C.3     1  UNL1        0.0158
     27 C         140.6102  141.3503  168.0970 C.3     1  UNL1        0.0342
     28 H         138.8254  138.7234  168.6923 H       1  UNL1        0.1231
@<TRIPOS>BOND
     1    16    17    1
     2    17     1    1
     3     1     2   ar
     4     2     3   ar
     5     3     4   ar
     6     4     7    1
     7     7     8   ar
     8     8     9   ar
     9     9    10   ar
    10    10    11   ar
    11    11    12   ar
    12    12    13   ar
    13    13    14   ar
    14    14    15   ar
    15     4     5   ar
    16     5     6   ar
    17    17    18    1
    18    18    19    1
    19    19    20    1
    20    20    21    1
    21    20    22    1
    22    20    23    1
    23    23    24    1
    24    24    25    1
    25    24    26    1
    26    24    27    1
    27     6     1   ar
    28    27    18    1
    29    15     7   ar
    30    14     9   ar
    31    23    28    1
@<TRIPOS>MOLECULE
*****
 28 31 0 0 0
SMALL
GASTEIGER

@<TRIPOS>ATOM
      1 C         142.3580  137.9793  158.1574 C.ar    1  UNL1        0.1535
      2 C         140.9332  138.4301  158.2855 C.ar    1  UNL1        0.0377
      3 C         140.3270  138.6238  159.6439 C.ar    1  UNL1        0.0243
      4 C         141.1457  138.3666  160.8741 C.ar    1  UNL1        0.1089
      5 N         142.5706  137.9158  160.7460 N.ar    1  UNL1       -0.1463
      6 N         143.1767  137.7222  159.3877 N.ar    1  UNL1       -0.1329
      7 C         140.5395  138.5603  162.2324 C.ar    1  UNL1        0.0488
      8 C         139.7045  137.5604  162.9760 C.ar    1  UNL1        0.0085
      9 C         139.3108  138.1700  164.2888 C.ar    1  UNL1        0.0065
     10 C         138.4900  137.6493  165.4312 C.ar    1  UNL1        0.0005
     11 C         138.2610  138.5054  166.6414 C.ar    1  UNL1        0.0000
     12 C         138.8527  139.8821  166.7092 C.ar    1  UNL1        0.0005
     13 C         139.6735  140.4027  165.5668 C.ar    1  UNL1        0.0065
     14 C         139.9026  139.5466  164.3566 C.ar    1  UNL1        0.0295
     15 S         140.6620  139.7879  163.0857 S.2     1  UNL1       -0.0854
     16 C         143.6171  138.9397  156.0977 C.3     1  UNL1        0.1135
     17 N         142.9642  137.7857  156.7991 N.pl3   1  UNL1       -0.2916
     18 C         142.9175  136.4380  156.1422 C.3     1  UNL1        0.0768
     19 C         143.4186  135.2288  156.8747 C.3     1  UNL1        0.0342
     20 C         143.3719  133.8811  156.2177 C.3     1  UNL1        0.0435
     21 C         143.5352  132.4032  156.0194 C.3     1  UNL1        0.0158
     22 C         143.9764  133.5062  157.5384 C.3     1  UNL1        0.0158
     23 N         142.8241  133.7427  154.8283 N.3     1  UNL1       -0.3015
     24 C         142.3230  134.9519  154.0957 C.3     1  UNL1        0.0435
     25 C         141.7348  135.7947  153.0033 C.3     1  UNL1        0.0158
     26 C         142.0720  133.8969  153.0593 C.3     1  UNL1        0.0158
     27 C         142.3697  136.2995  154.7526 C.3     1  UNL1        0.0342
     28 H         142.0443  133.0875  154.8831 H       1  UNL1        0.1231
@<TRIPOS>BOND
     1    16    17    1
     2    17     1    1
     3     1     2   ar
     4     2     3   ar
     5     3     4   ar
     6     4     7    1
     7     7     8   ar
     8     8     9   ar
     9     9    10   ar
    10    10    11   ar
    11    11    12   ar
    12    12    13   ar
    13    13    14   ar
    14    14    15   ar
    15     4     5   ar
    16     5     6   ar
    17    17    18    1
    18    18    19    1
    19    19    20    1
    20    20    21    1
    21    20    22    1
    22    20    23    1
    23    23    24    1
    24    24    25    1
    25    24    26    1
    26    24    27    1
    27     6     1   ar
    28    27    18    1
    29    15     7   ar
    30    14     9   ar
    31    23    28    1
@<TRIPOS>MOLECULE
*****
 28 31 0 0 0
SMALL
GASTEIGER

@<TRIPOS>ATOM
      1 C         142.2919  137.9359  158.0810 C.ar    1  UNL1        0.1535
      2 C         140.8710  138.3959  158.2199 C.ar    1  UNL1        0.0377
      3 C         140.2784  138.5997  159.5828 C.ar    1  UNL1        0.0243
      4 C         141.1068  138.3434  160.8067 C.ar    1  UNL1        0.1089
      5 N         142.5277  137.8834  160.6678 N.ar    1  UNL1       -0.1463
      6 N         143.1203  137.6796  159.3049 N.ar    1  UNL1       -0.1329
      7 C         140.5143  138.5472  162.1696 C.ar    1  UNL1        0.0488
      8 C         139.6924  137.5504  162.9317 C.ar    1  UNL1        0.0085
      9 C         139.3097  138.1706  164.2427 C.ar    1  UNL1        0.0065
     10 C         138.5039  137.6570  165.3989 C.ar    1  UNL1        0.0005
     11 C         138.2834  138.5236  166.6032 C.ar    1  UNL1        0.0000
     12 C         138.8689  139.9038  166.6514 C.ar    1  UNL1        0.0005
     13 C         139.6747  140.4174  165.4952 C.ar    1  UNL1        0.0065
     14 C         139.8951  139.5509  164.2909 C.ar    1  UNL1        0.0295
     15 S         140.6396  139.7835  163.0096 S.2     1  UNL1       -0.0854
     16 C         143.4862  138.8916  155.9810 C.3     1  UNL1        0.1135
     17 N         142.8844  137.7321  156.7181 N.pl3   1  UNL1       -0.2916
     18 C         142.8752  136.3689  156.0925 C.3     1  UNL1        0.0768
     19 C         142.3260  136.1823  154.7091 C.3     1  UNL1        0.0342
     20 C         142.3168  134.8190  154.0835 C.3     1  UNL1        0.0435
     21 C         142.0930  133.7335  153.0727 C.3     1  UNL1        0.0158
     22 C         141.6991  135.6187  152.9748 C.3     1  UNL1        0.0158
     23 N         142.8567  133.6424  154.8411 N.3     1  UNL1       -0.3015
     24 C         143.4059  133.8290  156.2244 C.3     1  UNL1        0.0435
     25 C         144.0267  133.5029  157.5503 C.3     1  UNL1        0.0158
     26 C         143.6122  132.3525  156.0592 C.3     1  UNL1        0.0158
     27 C         143.4151  135.1923  156.8501 C.3     1  UNL1        0.0342
     28 H         143.6092  133.2486  154.2762 H       1  UNL1        0.1231
@<TRIPOS>BOND
     1    16    17    1
     2    17     1    1
     3     1     2   ar
     4     2     3   ar
     5     3     4   ar
     6     4     7    1
     7     7     8   ar
     8     8     9   ar
     9     9    10   ar
    10    10    11   ar
    11    11    12   ar
    12    12    13   ar
    13    13    14   ar
    14    14    15   ar
    15     4     5   ar
    16     5     6   ar
    17    17    18    1
    18    18    19    1
    19    19    20    1
    20    20    21    1
    21    20    22    1
    22    20    23    1
    23    23    24    1
    24    24    25    1
    25    24    26    1
    26    24    27    1
    27     6     1   ar
    28    27    18    1
    29    15     7   ar
    30    14     9   ar
    31    23    28    1
@<TRIPOS>MOLECULE
*****
 28 31 0 0 0
SMALL
GASTEIGER

@<TRIPOS>ATOM
      1 C         140.0116  145.2754  156.9909 C.ar    1  UNL1        0.1535
      2 C         141.3135  145.9496  157.3081 C.ar    1  UNL1        0.0377
      3 C         142.1429  145.4731  158.4636 C.ar    1  UNL1        0.0243
      4 C         141.6705  144.3225  159.3018 C.ar    1  UNL1        0.1089
      5 N         140.3686  143.6483  158.9846 N.ar    1  UNL1       -0.1463
      6 N         139.5392  144.1248  157.8292 N.ar    1  UNL1       -0.1329
      7 C         142.4999  143.8460  160.4573 C.ar    1  UNL1        0.0488
      8 C         142.3983  144.3286  161.8739 C.ar    1  UNL1        0.0085
      9 C         143.4121  143.5841  162.6911 C.ar    1  UNL1        0.0065
     10 C         143.7663  143.6428  164.1475 C.ar    1  UNL1        0.0005
     11 C         144.8486  142.7588  164.6923 C.ar    1  UNL1        0.0000
     12 C         145.5769  141.8160  163.7808 C.ar    1  UNL1        0.0005
     13 C         145.2227  141.7573  162.3244 C.ar    1  UNL1        0.0065
     14 C         144.1403  142.6413  161.7796 C.ar    1  UNL1        0.0295
     15 S         143.5765  142.8032  160.3990 S.2     1  UNL1       -0.0854
     16 C         138.2398  144.8082  155.1492 C.3     1  UNL1        0.1135
     17 N         139.1822  145.7519  155.8355 N.pl3   1  UNL1       -0.2916
     18 C         139.2953  147.1722  155.3664 C.3     1  UNL1        0.0768
     19 C         139.9811  147.4810  154.0686 C.3     1  UNL1        0.0342
     20 C         140.0941  148.9014  153.5995 C.3     1  UNL1        0.0435
     21 C         140.4488  150.0775  152.7387 C.3     1  UNL1        0.0158
     22 C         140.7901  148.1984  152.4718 C.3     1  UNL1        0.0158
     23 N         139.5213  150.0127  154.4282 N.3     1  UNL1       -0.3015
     24 C         138.8355  149.7039  155.7260 C.3     1  UNL1        0.0435
     25 C         138.1004  149.9135  157.0165 C.3     1  UNL1        0.0158
     26 C         138.6933  151.1969  155.7051 C.3     1  UNL1        0.0158
     27 C         138.7225  148.2836  156.1951 C.3     1  UNL1        0.0342
     28 H         138.8398  150.4955  153.8426 H       1  UNL1        0.1231
@<TRIPOS>BOND
     1    16    17    1
     2    17     1    1
     3     1     2   ar
     4     2     3   ar
     5     3     4   ar
     6     4     7    1
     7     7     8   ar
     8     8     9   ar
     9     9    10   ar
    10    10    11   ar
    11    11    12   ar
    12    12    13   ar
    13    13    14   ar
    14    14    15   ar
    15     4     5   ar
    16     5     6   ar
    17    17    18    1
    18    18    19    1
    19    19    20    1
    20    20    21    1
    21    20    22    1
    22    20    23    1
    23    23    24    1
    24    24    25    1
    25    24    26    1
    26    24    27    1
    27     6     1   ar
    28    27    18    1
    29    15     7   ar
    30    14     9   ar
    31    23    28    1
@<TRIPOS>MOLECULE
*****
 28 31 0 0 0
SMALL
GASTEIGER

@<TRIPOS>ATOM
      1 C         139.6550  144.0859  161.8111 C.ar    1  UNL1        0.1535
      2 C         139.9601  143.0789  160.7421 C.ar    1  UNL1        0.0377
      3 C         140.2193  143.5328  159.3361 C.ar    1  UNL1        0.0243
      4 C         140.1734  144.9937  158.9991 C.ar    1  UNL1        0.1089
      5 N         139.8683  146.0007  160.0681 N.ar    1  UNL1       -0.1463
      6 N         139.6091  145.5468  161.4740 N.ar    1  UNL1       -0.1329
      7 C         140.4326  145.4476  157.5931 C.ar    1  UNL1        0.0488
      8 C         139.8021  146.6292  156.9177 C.ar    1  UNL1        0.0085
      9 C         140.3477  146.7115  155.5228 C.ar    1  UNL1        0.0065
     10 C         140.0883  147.6699  154.3985 C.ar    1  UNL1        0.0005
     11 C         140.7966  147.4976  153.0876 C.ar    1  UNL1        0.0000
     12 C         141.7643  146.3667  152.9009 C.ar    1  UNL1        0.0005
     13 C         142.0236  145.4082  154.0252 C.ar    1  UNL1        0.0065
     14 C         141.3153  145.5806  155.3361 C.ar    1  UNL1        0.0295
     15 S         141.3678  144.7995  156.6156 S.2     1  UNL1       -0.0854
     16 C         137.9867  143.4800  163.7083 C.3     1  UNL1        0.1135
     17 N         139.3958  143.6321  163.2170 N.pl3   1  UNL1       -0.2916
     18 C         140.5456  143.3302  164.1317 C.3     1  UNL1        0.0768
     19 C         141.9142  143.8561  163.8148 C.3     1  UNL1        0.0342
     20 C         143.0640  143.5542  164.7296 C.3     1  UNL1        0.0435
     21 C         144.4580  143.5379  165.2834 C.3     1  UNL1        0.0158
     22 C         143.7669  144.3764  163.6903 C.3     1  UNL1        0.0158
     23 N         142.8453  142.7264  165.9612 N.3     1  UNL1       -0.3015
     24 C         141.4768  142.2005  166.2781 C.3     1  UNL1        0.0435
     25 C         140.3746  141.4832  166.9996 C.3     1  UNL1        0.0158
     26 C         142.2439  141.6495  167.4434 C.3     1  UNL1        0.0158
     27 C         140.3269  142.5023  165.3634 C.3     1  UNL1        0.0342
     28 H         143.1320  143.2987  166.7554 H       1  UNL1        0.1231
@<TRIPOS>BOND
     1    16    17    1
     2    17     1    1
     3     1     2   ar
     4     2     3   ar
     5     3     4   ar
     6     4     7    1
     7     7     8   ar
     8     8     9   ar
     9     9    10   ar
    10    10    11   ar
    11    11    12   ar
    12    12    13   ar
    13    13    14   ar
    14    14    15   ar
    15     4     5   ar
    16     5     6   ar
    17    17    18    1
    18    18    19    1
    19    19    20    1
    20    20    21    1
    21    20    22    1
    22    20    23    1
    23    23    24    1
    24    24    25    1
    25    24    26    1
    26    24    27    1
    27     6     1   ar
    28    27    18    1
    29    15     7   ar
    30    14     9   ar
    31    23    28    1
@<TRIPOS>MOLECULE
*****
 28 31 0 0 0
SMALL
GASTEIGER

@<TRIPOS>ATOM
      1 C         139.6666  143.9103  161.6330 C.ar    1  UNL1        0.1535
      2 C         139.9947  142.9417  160.5357 C.ar    1  UNL1        0.0377
      3 C         140.2544  143.4427  159.1459 C.ar    1  UNL1        0.0243
      4 C         140.1862  144.9123  158.8534 C.ar    1  UNL1        0.1089
      5 N         139.8581  145.8809  159.9508 N.ar    1  UNL1       -0.1463
      6 N         139.5983  145.3799  161.3405 N.ar    1  UNL1       -0.1329
      7 C         140.4459  145.4133  157.4636 C.ar    1  UNL1        0.0488
      8 C         141.3754  144.7939  156.4625 C.ar    1  UNL1        0.0085
      9 C         141.3258  145.6194  155.2111 C.ar    1  UNL1        0.0065
     10 C         142.0308  145.4884  153.8936 C.ar    1  UNL1        0.0005
     11 C         141.7757  146.4872  152.8039 C.ar    1  UNL1        0.0000
     12 C         140.8156  147.6169  153.0317 C.ar    1  UNL1        0.0005
     13 C         140.1105  147.7479  154.3492 C.ar    1  UNL1        0.0065
     14 C         140.3656  146.7492  155.4388 C.ar    1  UNL1        0.0295
     15 S         139.8219  146.6218  156.8310 S.2     1  UNL1       -0.0854
     16 C         138.0056  143.0982  163.4582 C.3     1  UNL1        0.1135
     17 N         139.4068  143.4094  163.0228 N.pl3   1  UNL1       -0.2916
     18 C         140.5483  143.2195  163.9772 C.3     1  UNL1        0.0768
     19 C         140.3241  142.5196  165.2849 C.3     1  UNL1        0.0342
     20 C         141.4657  142.3298  166.2393 C.3     1  UNL1        0.0435
     21 C         142.2244  141.9124  167.4641 C.3     1  UNL1        0.0158
     22 C         140.3635  141.6749  167.0179 C.3     1  UNL1        0.0158
     23 N         142.8314  142.8397  165.8860 N.3     1  UNL1       -0.3015
     24 C         143.0556  143.5395  164.5783 C.3     1  UNL1        0.0435
     25 C         143.7613  144.2603  163.4683 C.3     1  UNL1        0.0158
     26 C         144.4422  143.6000  165.1472 C.3     1  UNL1        0.0158
     27 C         141.9141  143.7294  163.6239 C.3     1  UNL1        0.0342
     28 H         143.4589  142.0357  165.9011 H       1  UNL1        0.1231
@<TRIPOS>BOND
     1    16    17    1
     2    17     1    1
     3     1     2   ar
     4     2     3   ar
     5     3     4   ar
     6     4     7    1
     7     7     8   ar
     8     8     9   ar
     9     9    10   ar
    10    10    11   ar
    11    11    12   ar
    12    12    13   ar
    13    13    14   ar
    14    14    15   ar
    15     4     5   ar
    16     5     6   ar
    17    17    18    1
    18    18    19    1
    19    19    20    1
    20    20    21    1
    21    20    22    1
    22    20    23    1
    23    23    24    1
    24    24    25    1
    25    24    26    1
    26    24    27    1
    27     6     1   ar
    28    27    18    1
    29    15     7   ar
    30    14     9   ar
    31    23    28    1
@<TRIPOS>MOLECULE
*****
 28 31 0 0 0
SMALL
GASTEIGER

@<TRIPOS>ATOM
      1 C         144.4841  140.4323  157.1244 C.ar    1  UNL1        0.1535
      2 C         144.7727  139.9890  155.7208 C.ar    1  UNL1        0.0377
      3 C         144.2901  138.6518  155.2423 C.ar    1  UNL1        0.0243
      4 C         143.5188  137.7579  156.1675 C.ar    1  UNL1        0.1089
      5 N         143.2302  138.2012  157.5711 N.ar    1  UNL1       -0.1463
      6 N         143.7128  139.5384  158.0495 N.ar    1  UNL1       -0.1329
      7 C         143.0362  136.4207  155.6890 C.ar    1  UNL1        0.0488
      8 C         142.5991  136.0889  154.2930 C.ar    1  UNL1        0.0085
      9 C         142.1987  134.6436  154.2638 C.ar    1  UNL1        0.0065
     10 C         141.6859  133.7663  153.1605 C.ar    1  UNL1        0.0005
     11 C         141.3628  132.3275  153.4351 C.ar    1  UNL1        0.0000
     12 C         141.5525  131.7660  154.8131 C.ar    1  UNL1        0.0005
     13 C         142.0653  132.6433  155.9164 C.ar    1  UNL1        0.0065
     14 C         142.3884  134.0821  155.6418 C.ar    1  UNL1        0.0295
     15 S         142.9060  135.1804  156.5226 S.2     1  UNL1       -0.0854
     16 C         146.2527  142.3349  157.0770 C.3     1  UNL1        0.1135
     17 N         144.9667  141.7696  157.6028 N.pl3   1  UNL1       -0.2916
     18 C         144.1633  142.5415  158.6071 C.3     1  UNL1        0.0768
     19 C         144.5134  142.4682  160.0638 C.3     1  UNL1        0.0342
     20 C         143.7100  143.2402  161.0681 C.3     1  UNL1        0.0435
     21 C         143.2519  143.7843  162.3888 C.3     1  UNL1        0.0158
     22 C         144.7045  142.5839  161.9792 C.3     1  UNL1        0.0158
     23 N         142.5564  144.0855  160.6156 N.3     1  UNL1       -0.3015
     24 C         142.2062  144.1587  159.1589 C.3     1  UNL1        0.0435
     25 C         141.4907  144.5469  157.8990 C.3     1  UNL1        0.0158
     26 C         141.1543  145.0655  159.7256 C.3     1  UNL1        0.0158
     27 C         143.0096  143.3868  158.1546 C.3     1  UNL1        0.0342
     28 H         142.7530  145.0391  160.9195 H       1  UNL1        0.1231
@<TRIPOS>BOND
     1    16    17    1
     2    17     1    1
     3     1     2   ar
     4     2     3   ar
     5     3     4   ar
     6     4     7    1
     7     7     8   ar
     8     8     9   ar
     9     9    10   ar
    10    10    11   ar
    11    11    12   ar
    12    12    13   ar
    13    13    14   ar
    14    14    15   ar
    15     4     5   ar
    16     5     6   ar
    17    17    18    1
    18    18    19    1
    19    19    20    1
    20    20    21    1
    21    20    22    1
    22    20    23    1
    23    23    24    1
    24    24    25    1
    25    24    26    1
    26    24    27    1
    27     6     1   ar
    28    27    18    1
    29    15     7   ar
    30    14     9   ar
    31    23    28    1
