@<TRIPOS>MOLECULE
*****
 36 40 0 0 0
SMALL
GASTEIGER

@<TRIPOS>ATOM
      1 C         143.0789  142.7748  164.8784 C.3     1  UNL1        0.1909
      2 C         143.2823  141.3581  165.3272 C.3     1  UNL1        0.1783
      3 O         141.9450  140.7964  165.7095 O.3     1  UNL1       -0.3267
      4 C         140.9151  141.8660  165.4970 C.3     1  UNL1        0.2296
      5 O         141.6158  143.0888  164.9834 O.3     1  UNL1       -0.3255
      6 C         139.9572  140.8212  165.9877 C.ar    1  UNL1        0.0409
      7 C         139.2463  139.9359  165.0074 C.ar    1  UNL1        0.0022
      8 C         138.2883  138.8911  165.4981 C.ar    1  UNL1        0.0113
      9 C         138.0413  138.7316  166.9690 C.ar    1  UNL1        0.0585
     10 CL        137.0834  137.6867  167.4597 Cl      1  UNL1       -0.0822
     11 C         138.7523  139.6169  167.9493 C.ar    1  UNL1        0.0226
     12 C         139.7101  140.6616  167.4586 C.ar    1  UNL1        0.0591
     13 CL        140.4211  141.5470  168.4388 Cl      1  UNL1       -0.0824
     14 C         144.1503  143.7129  164.4074 C.3     1  UNL1        0.2374
     15 O         144.6076  143.6729  162.9793 O.3     1  UNL1       -0.4727
     16 C         142.6862  140.8168  160.0808 C.ar    1  UNL1        0.0481
     17 C         142.1170  142.1919  160.2675 C.ar    1  UNL1        0.0176
     18 C         142.7575  143.1440  161.2337 C.ar    1  UNL1        0.0382
     19 C         143.9671  142.7208  162.0132 C.ar    1  UNL1        0.1388
     20 C         144.5363  141.3457  161.8265 C.ar    1  UNL1        0.0382
     21 C         143.8959  140.3937  160.8603 C.ar    1  UNL1        0.0176
     22 C         140.9681  136.0222  155.4646 C.3     1  UNL1        0.0948
     23 C         140.1244  137.0087  156.2162 C.2     1  UNL1        0.2262
     24 O         138.6403  137.0431  156.0017 O.2     1  UNL1       -0.2749
     25 N         140.7649  137.9607  157.1824 N.am    1  UNL1       -0.2760
     26 C         142.2490  137.9263  157.3969 C.3     1  UNL1        0.1148
     27 C         142.8895  138.8783  158.3630 C.3     1  UNL1        0.1123
     28 N         142.0458  139.8648  159.1147 N.pl3   1  UNL1       -0.3041
     29 C         140.5616  139.8992  158.9002 C.3     1  UNL1        0.1123
     30 C         139.9212  138.9472  157.9340 C.3     1  UNL1        0.1148
     31 C         139.6849  142.7173  165.3871 C.3     1  UNL1        0.1682
     32 N         139.3125  143.3308  164.0699 N.ar    1  UNL1       -0.3025
     33 C         139.3006  142.6310  162.7433 C.ar    1  UNL1        0.0982
     34 C         138.8675  143.6195  161.7017 C.ar    1  UNL1        0.1193
     35 N         138.6116  144.9303  162.3845 N.ar    1  UNL1       -0.2223
     36 C         138.8867  144.7519  163.8482 C.ar    1  UNL1        0.1788
@<TRIPOS>BOND
     1    22    23    1
     2    23    24    2
     3    23    25   am
     4    25    26    1
     5    26    27    1
     6    27    28    1
     7    28    16    1
     8    16    17   ar
     9    17    18   ar
    10    18    19   ar
    11    19    15    1
    12    15    14    1
    13     1    14    1
    14     1     2    1
    15     2     3    1
    16     3     4    1
    17     4    31    1
    18    31    32    1
    19    32    33   ar
    20    33    34   ar
    21    34    35   ar
    22    35    36   ar
    23     4     6    1
    24     6     7   ar
    25     7     8   ar
    26     8     9   ar
    27     9    10    1
    28     9    11   ar
    29    11    12   ar
    30    12    13    1
    31     4     5    1
    32    19    20   ar
    33    20    21   ar
    34    28    29    1
    35    29    30    1
    36    30    25    1
    37    21    16   ar
    38     5     1    1
    39    36    32   ar
    40    12     6   ar
@<TRIPOS>MOLECULE
*****
 36 40 0 0 0
SMALL
GASTEIGER

@<TRIPOS>ATOM
      1 C         138.6120  142.7738  164.3951 C.3     1  UNL1        0.1909
      2 C         139.3936  143.5916  165.3801 C.3     1  UNL1        0.1783
      3 O         140.0266  142.6524  166.3636 O.3     1  UNL1       -0.3267
      4 C         139.6362  141.2541  165.9865 C.3     1  UNL1        0.2296
      5 O         138.7619  141.3290  164.7698 O.3     1  UNL1       -0.3255
      6 C         140.4650  140.8700  167.1761 C.ar    1  UNL1        0.0409
      7 C         139.7977  140.4016  168.4353 C.ar    1  UNL1        0.0022
      8 C         140.6266  140.0175  169.6251 C.ar    1  UNL1        0.0113
      9 C         142.1226  140.1018  169.5557 C.ar    1  UNL1        0.0585
     10 CL        142.9514  139.7177  170.7455 Cl      1  UNL1       -0.0822
     11 C         142.7898  140.5703  168.2965 C.ar    1  UNL1        0.0226
     12 C         141.9610  140.9543  167.1068 C.ar    1  UNL1        0.0591
     13 CL        142.6282  141.4228  165.8477 Cl      1  UNL1       -0.0824
     14 C         137.8197  143.3070  163.2384 C.3     1  UNL1        0.2374
     15 O         137.2587  142.3642  162.2155 O.3     1  UNL1       -0.4727
     16 C         140.0241  140.1451  159.4446 C.ar    1  UNL1        0.0481
     17 C         138.6475  139.6140  159.7140 C.ar    1  UNL1        0.0176
     18 C         137.7256  140.3537  160.6376 C.ar    1  UNL1        0.0382
     19 C         138.1805  141.6245  161.2919 C.ar    1  UNL1        0.1388
     20 C         139.5572  142.1556  161.0225 C.ar    1  UNL1        0.0382
     21 C         140.4790  141.4160  160.0989 C.ar    1  UNL1        0.0176
     22 C         143.2697  135.8970  155.1238 C.3     1  UNL1        0.0948
     23 C         143.7114  137.1864  155.7500 C.2     1  UNL1        0.2262
     24 O         145.0750  137.7362  155.4526 O.2     1  UNL1       -0.2749
     25 N         142.7896  137.9261  156.6737 N.am    1  UNL1       -0.2760
     26 C         141.4261  137.3764  156.9711 C.3     1  UNL1        0.1148
     27 C         140.5042  138.1160  157.8947 C.3     1  UNL1        0.1123
     28 N         140.9460  139.4055  158.5210 N.pl3   1  UNL1       -0.3041
     29 C         142.3095  139.9552  158.2236 C.3     1  UNL1        0.1123
     30 C         143.2313  139.2155  157.2999 C.3     1  UNL1        0.1148
     31 C         139.4190  139.7754  165.8580 C.3     1  UNL1        0.1682
     32 N         139.7434  139.0788  164.5697 N.ar    1  UNL1       -0.3025
     33 C         141.0121  139.2256  163.7833 C.ar    1  UNL1        0.0982
     34 C         140.9088  138.3506  162.5693 C.ar    1  UNL1        0.1193
     35 N         139.5762  137.6630  162.6056 N.ar    1  UNL1       -0.2223
     36 C         138.8559  138.1131  163.8419 C.ar    1  UNL1        0.1788
@<TRIPOS>BOND
     1    22    23    1
     2    23    24    2
     3    23    25   am
     4    25    26    1
     5    26    27    1
     6    27    28    1
     7    28    16    1
     8    16    17   ar
     9    17    18   ar
    10    18    19   ar
    11    19    15    1
    12    15    14    1
    13     1    14    1
    14     1     2    1
    15     2     3    1
    16     3     4    1
    17     4    31    1
    18    31    32    1
    19    32    33   ar
    20    33    34   ar
    21    34    35   ar
    22    35    36   ar
    23     4     6    1
    24     6     7   ar
    25     7     8   ar
    26     8     9   ar
    27     9    10    1
    28     9    11   ar
    29    11    12   ar
    30    12    13    1
    31     4     5    1
    32    19    20   ar
    33    20    21   ar
    34    28    29    1
    35    29    30    1
    36    30    25    1
    37    21    16   ar
    38     5     1    1
    39    36    32   ar
    40    12     6   ar
@<TRIPOS>MOLECULE
*****
 36 40 0 0 0
SMALL
GASTEIGER

@<TRIPOS>ATOM
      1 C         143.2422  142.9167  163.8309 C.3     1  UNL1        0.1909
      2 C         143.6667  141.7942  164.7307 C.3     1  UNL1        0.1783
      3 O         142.5976  141.5991  165.7646 O.3     1  UNL1       -0.3267
      4 C         141.5123  142.6011  165.5038 C.3     1  UNL1        0.2296
      5 O         141.9105  143.4154  164.3087 O.3     1  UNL1       -0.3255
      6 C         140.8585  141.9686  166.6964 C.ar    1  UNL1        0.0409
      7 C         140.8098  142.7040  168.0030 C.ar    1  UNL1        0.0022
      8 C         140.1560  142.0715  169.1957 C.ar    1  UNL1        0.0113
      9 C         139.5509  140.7036  169.0819 C.ar    1  UNL1        0.0585
     10 CL        138.8971  140.0711  170.2746 Cl      1  UNL1       -0.0822
     11 C         139.5996  139.9683  167.7753 C.ar    1  UNL1        0.0226
     12 C         140.2534  140.6007  166.5827 C.ar    1  UNL1        0.0591
     13 CL        140.3021  139.8654  165.2762 Cl      1  UNL1       -0.0824
     14 C         144.0137  143.4474  162.6591 C.3     1  UNL1        0.2374
     15 O         143.3560  144.3855  161.6910 O.3     1  UNL1       -0.4727
     16 C         140.0315  142.9154  159.0384 C.ar    1  UNL1        0.0481
     17 C         141.1160  141.9746  159.4729 C.ar    1  UNL1        0.0176
     18 C         142.2242  142.4647  160.3571 C.ar    1  UNL1        0.0382
     19 C         142.2479  143.8955  160.8068 C.ar    1  UNL1        0.1388
     20 C         141.1633  144.8362  160.3723 C.ar    1  UNL1        0.0382
     21 C         140.0552  144.3461  159.4881 C.ar    1  UNL1        0.0176
     22 C         135.2006  141.7453  154.2905 C.3     1  UNL1        0.0948
     23 C         135.5988  140.9551  155.5017 C.2     1  UNL1        0.2262
     24 O         134.8888  139.6749  155.8287 O.2     1  UNL1       -0.2749
     25 N         136.7070  141.4452  156.3859 N.am    1  UNL1       -0.2760
     26 C         137.4169  142.7254  156.0589 C.3     1  UNL1        0.1148
     27 C         138.5251  143.2154  156.9430 C.3     1  UNL1        0.1123
     28 N         138.9233  142.4253  158.1542 N.pl3   1  UNL1       -0.3041
     29 C         138.2133  141.1451  158.4813 C.3     1  UNL1        0.1123
     30 C         137.1052  140.6550  157.5971 C.3     1  UNL1        0.1148
     31 C         140.2902  143.4709  165.4923 C.3     1  UNL1        0.1682
     32 N         139.4249  143.5324  164.2686 N.ar    1  UNL1       -0.3025
     33 C         138.9486  142.3585  163.4656 C.ar    1  UNL1        0.0982
     34 C         138.1133  142.8793  162.3338 C.ar    1  UNL1        0.1193
     35 N         138.0733  144.3752  162.4374 N.ar    1  UNL1       -0.2223
     36 C         138.8839  144.7789  163.6331 C.ar    1  UNL1        0.1788
@<TRIPOS>BOND
     1    22    23    1
     2    23    24    2
     3    23    25   am
     4    25    26    1
     5    26    27    1
     6    27    28    1
     7    28    16    1
     8    16    17   ar
     9    17    18   ar
    10    18    19   ar
    11    19    15    1
    12    15    14    1
    13     1    14    1
    14     1     2    1
    15     2     3    1
    16     3     4    1
    17     4    31    1
    18    31    32    1
    19    32    33   ar
    20    33    34   ar
    21    34    35   ar
    22    35    36   ar
    23     4     6    1
    24     6     7   ar
    25     7     8   ar
    26     8     9   ar
    27     9    10    1
    28     9    11   ar
    29    11    12   ar
    30    12    13    1
    31     4     5    1
    32    19    20   ar
    33    20    21   ar
    34    28    29    1
    35    29    30    1
    36    30    25    1
    37    21    16   ar
    38     5     1    1
    39    36    32   ar
    40    12     6   ar
@<TRIPOS>MOLECULE
*****
 36 40 0 0 0
SMALL
GASTEIGER

@<TRIPOS>ATOM
      1 C         138.4945  142.7287  164.2499 C.3     1  UNL1        0.1909
      2 C         139.2705  143.9216  164.7241 C.3     1  UNL1        0.1783
      3 O         140.1936  143.4697  165.8167 O.3     1  UNL1       -0.3267
      4 C         139.9880  141.9975  166.0178 C.3     1  UNL1        0.2296
      5 O         138.9379  141.5395  165.0495 O.3     1  UNL1       -0.3255
      6 C         141.0411  142.1545  167.0743 C.ar    1  UNL1        0.0409
      7 C         140.6525  142.1781  168.5229 C.ar    1  UNL1        0.0022
      8 C         141.7056  142.3351  169.5795 C.ar    1  UNL1        0.0113
      9 C         143.1473  142.4685  169.1874 C.ar    1  UNL1        0.0585
     10 CL        144.2004  142.6256  170.2440 Cl      1  UNL1       -0.0822
     11 C         143.5359  142.4450  167.7387 C.ar    1  UNL1        0.0226
     12 C         142.4828  142.2880  166.6823 C.ar    1  UNL1        0.0591
     13 CL        142.8713  142.2644  165.2337 Cl      1  UNL1       -0.0824
     14 C         137.4571  142.7256  163.1664 C.3     1  UNL1        0.2374
     15 O         136.9732  141.4258  162.5951 O.3     1  UNL1       -0.4727
     16 C         139.4228  139.2832  159.4872 C.ar    1  UNL1        0.0481
     17 C         139.1449  140.7501  159.3429 C.ar    1  UNL1        0.0176
     18 C         138.3284  141.4643  160.3788 C.ar    1  UNL1        0.0382
     19 C         137.7898  140.7116  161.5592 C.ar    1  UNL1        0.1388
     20 C         138.0676  139.2447  161.7036 C.ar    1  UNL1        0.0382
     21 C         138.8841  138.5305  160.6676 C.ar    1  UNL1        0.0176
     22 C         144.1591  136.2212  155.5578 C.3     1  UNL1        0.0948
     23 C         142.6888  136.4264  155.3434 C.2     1  UNL1        0.2262
     24 O         142.0350  135.9174  154.0930 O.2     1  UNL1       -0.2749
     25 N         141.8723  137.1406  156.3793 N.am    1  UNL1       -0.2760
     26 C         142.5261  137.6496  157.6297 C.3     1  UNL1        0.1148
     27 C         141.7096  138.3638  158.6657 C.3     1  UNL1        0.1123
     28 N         140.2393  138.5690  158.4513 N.pl3   1  UNL1       -0.3041
     29 C         139.5855  138.0601  157.2009 C.3     1  UNL1        0.1123
     30 C         140.4020  137.3458  156.1650 C.3     1  UNL1        0.1148
     31 C         140.0025  140.5581  166.4397 C.3     1  UNL1        0.1682
     32 N         140.2752  139.4831  165.4297 N.ar    1  UNL1       -0.3025
     33 C         139.4690  138.2338  165.2324 C.ar    1  UNL1        0.0982
     34 C         140.0975  137.4473  164.1205 C.ar    1  UNL1        0.1193
     35 N         141.2922  138.2106  163.6306 N.ar    1  UNL1       -0.2223
     36 C         141.4020  139.4688  164.4398 C.ar    1  UNL1        0.1788
@<TRIPOS>BOND
     1    22    23    1
     2    23    24    2
     3    23    25   am
     4    25    26    1
     5    26    27    1
     6    27    28    1
     7    28    16    1
     8    16    17   ar
     9    17    18   ar
    10    18    19   ar
    11    19    15    1
    12    15    14    1
    13     1    14    1
    14     1     2    1
    15     2     3    1
    16     3     4    1
    17     4    31    1
    18    31    32    1
    19    32    33   ar
    20    33    34   ar
    21    34    35   ar
    22    35    36   ar
    23     4     6    1
    24     6     7   ar
    25     7     8   ar
    26     8     9   ar
    27     9    10    1
    28     9    11   ar
    29    11    12   ar
    30    12    13    1
    31     4     5    1
    32    19    20   ar
    33    20    21   ar
    34    28    29    1
    35    29    30    1
    36    30    25    1
    37    21    16   ar
    38     5     1    1
    39    36    32   ar
    40    12     6   ar
@<TRIPOS>MOLECULE
*****
 36 40 0 0 0
SMALL
GASTEIGER

@<TRIPOS>ATOM
      1 C         138.0962  138.9552  162.4512 C.3     1  UNL1        0.1909
      2 C         139.1236  138.0535  163.0689 C.3     1  UNL1        0.1783
      3 O         139.6995  138.7561  164.2625 O.3     1  UNL1       -0.3267
      4 C         139.0280  140.0921  164.3826 C.3     1  UNL1        0.2296
      5 O         138.0372  140.2152  163.2631 O.3     1  UNL1       -0.3255
      6 C         139.9173  140.2555  165.5793 C.ar    1  UNL1        0.0409
      7 C         141.2538  140.9212  165.4353 C.ar    1  UNL1        0.0022
      8 C         142.1432  141.0846  166.6321 C.ar    1  UNL1        0.0113
      9 C         141.6961  140.5823  167.9729 C.ar    1  UNL1        0.0585
     10 CL        142.5855  140.7457  169.1697 Cl      1  UNL1       -0.0822
     11 C         140.3596  139.9165  168.1169 C.ar    1  UNL1        0.0226
     12 C         139.4703  139.7532  166.9202 C.ar    1  UNL1        0.0591
     13 CL        138.1339  139.0874  167.0642 Cl      1  UNL1       -0.0824
     14 C         137.2726  138.6504  161.2352 C.3     1  UNL1        0.2374
     15 O         137.4284  139.4815  159.9963 O.3     1  UNL1       -0.4727
     16 C         141.5240  140.7792  158.6576 C.ar    1  UNL1        0.0481
     17 C         140.4697  141.8058  158.9483 C.ar    1  UNL1        0.0176
     18 C         139.1045  141.3732  159.3945 C.ar    1  UNL1        0.0382
     19 C         138.7936  139.9141  159.5501 C.ar    1  UNL1        0.1388
     20 C         139.8479  138.8875  159.2594 C.ar    1  UNL1        0.0382
     21 C         141.2131  139.3201  158.8132 C.ar    1  UNL1        0.0176
     22 C         147.5237  142.0465  155.5516 C.3     1  UNL1        0.0948
     23 C         146.9848  142.5094  156.8727 C.2     1  UNL1        0.2262
     24 O         147.8111  143.4048  157.7476 O.2     1  UNL1       -0.2749
     25 N         145.6196  142.0768  157.3189 N.am    1  UNL1       -0.2760
     26 C         144.7933  141.1814  156.4441 C.3     1  UNL1        0.1148
     27 C         143.4281  140.7489  156.8903 C.3     1  UNL1        0.1123
     28 N         142.8892  141.2117  158.2114 N.pl3   1  UNL1       -0.3041
     29 C         143.7155  142.1071  159.0862 C.3     1  UNL1        0.1123
     30 C         145.0807  142.5397  158.6400 C.3     1  UNL1        0.1148
     31 C         138.5424  141.4622  164.7527 C.3     1  UNL1        0.1682
     32 N         138.6409  142.5856  163.7636 N.ar    1  UNL1       -0.3025
     33 C         139.7750  142.8252  162.8116 C.ar    1  UNL1        0.0982
     34 C         139.4576  144.0542  162.0125 C.ar    1  UNL1        0.1193
     35 N         138.1273  144.5742  162.4705 N.ar    1  UNL1       -0.2223
     36 C         137.6225  143.6665  163.5528 C.ar    1  UNL1        0.1788
@<TRIPOS>BOND
     1    22    23    1
     2    23    24    2
     3    23    25   am
     4    25    26    1
     5    26    27    1
     6    27    28    1
     7    28    16    1
     8    16    17   ar
     9    17    18   ar
    10    18    19   ar
    11    19    15    1
    12    15    14    1
    13     1    14    1
    14     1     2    1
    15     2     3    1
    16     3     4    1
    17     4    31    1
    18    31    32    1
    19    32    33   ar
    20    33    34   ar
    21    34    35   ar
    22    35    36   ar
    23     4     6    1
    24     6     7   ar
    25     7     8   ar
    26     8     9   ar
    27     9    10    1
    28     9    11   ar
    29    11    12   ar
    30    12    13    1
    31     4     5    1
    32    19    20   ar
    33    20    21   ar
    34    28    29    1
    35    29    30    1
    36    30    25    1
    37    21    16   ar
    38     5     1    1
    39    36    32   ar
    40    12     6   ar
@<TRIPOS>MOLECULE
*****
 36 40 0 0 0
SMALL
GASTEIGER

@<TRIPOS>ATOM
      1 C         138.6353  142.1211  162.3902 C.3     1  UNL1        0.1909
      2 C         137.7491  142.5020  163.5389 C.3     1  UNL1        0.1783
      3 O         138.4046  142.0353  164.8048 O.3     1  UNL1       -0.3267
      4 C         139.6960  141.3659  164.4384 C.3     1  UNL1        0.2296
      5 O         139.8387  141.4189  162.9461 O.3     1  UNL1       -0.3255
      6 C         139.8292  141.1641  165.9188 C.ar    1  UNL1        0.0409
      7 C         140.7361  142.0521  166.7182 C.ar    1  UNL1        0.0022
      8 C         140.8693  141.8504  168.1986 C.ar    1  UNL1        0.0113
      9 C         140.0956  140.7606  168.8796 C.ar    1  UNL1        0.0585
     10 CL        140.2288  140.5588  170.3600 Cl      1  UNL1       -0.0822
     11 C         139.1887  139.8725  168.0801 C.ar    1  UNL1        0.0226
     12 C         139.0555  140.0743  166.5998 C.ar    1  UNL1        0.0591
     13 CL        138.1486  139.1863  165.8004 Cl      1  UNL1       -0.0824
     14 C         138.3657  142.3944  160.9402 C.3     1  UNL1        0.2374
     15 O         139.5036  142.4607  159.9652 O.3     1  UNL1       -0.4727
     16 C         140.9014  138.7255  157.8809 C.ar    1  UNL1        0.0481
     17 C         141.5547  140.0417  157.5795 C.ar    1  UNL1        0.0176
     18 C         141.0887  141.2868  158.2743 C.ar    1  UNL1        0.0382
     19 C         139.9696  141.2157  159.2704 C.ar    1  UNL1        0.1388
     20 C         139.3163  139.8995  159.5718 C.ar    1  UNL1        0.0382
     21 C         139.7823  138.6544  158.8770 C.ar    1  UNL1        0.0176
     22 C         141.9736  133.1837  153.9581 C.3     1  UNL1        0.0948
     23 C         142.7652  133.7453  155.1018 C.2     1  UNL1        0.2262
     24 O         144.0226  133.0618  155.5507 O.2     1  UNL1       -0.2749
     25 N         142.2992  134.9903  155.7965 N.am    1  UNL1       -0.2760
     26 C         141.0418  135.6738  155.3476 C.3     1  UNL1        0.1148
     27 C         140.5758  136.9189  156.0424 C.3     1  UNL1        0.1123
     28 N         141.3674  137.4805  157.1861 N.pl3   1  UNL1       -0.3041
     29 C         142.6248  136.7970  157.6350 C.3     1  UNL1        0.1123
     30 C         143.0908  135.5519  156.9402 C.3     1  UNL1        0.1148
     31 C         141.0153  140.6543  164.3815 C.3     1  UNL1        0.1682
     32 N         141.1884  139.4659  163.4827 N.ar    1  UNL1       -0.3025
     33 C         142.1577  139.3560  162.3434 C.ar    1  UNL1        0.0982
     34 C         141.9910  138.0011  161.7220 C.ar    1  UNL1        0.1193
     35 N         140.9185  137.2735  162.4773 N.ar    1  UNL1       -0.2223
     36 C         140.4225  138.1789  163.5655 C.ar    1  UNL1        0.1788
@<TRIPOS>BOND
     1    22    23    1
     2    23    24    2
     3    23    25   am
     4    25    26    1
     5    26    27    1
     6    27    28    1
     7    28    16    1
     8    16    17   ar
     9    17    18   ar
    10    18    19   ar
    11    19    15    1
    12    15    14    1
    13     1    14    1
    14     1     2    1
    15     2     3    1
    16     3     4    1
    17     4    31    1
    18    31    32    1
    19    32    33   ar
    20    33    34   ar
    21    34    35   ar
    22    35    36   ar
    23     4     6    1
    24     6     7   ar
    25     7     8   ar
    26     8     9   ar
    27     9    10    1
    28     9    11   ar
    29    11    12   ar
    30    12    13    1
    31     4     5    1
    32    19    20   ar
    33    20    21   ar
    34    28    29    1
    35    29    30    1
    36    30    25    1
    37    21    16   ar
    38     5     1    1
    39    36    32   ar
    40    12     6   ar
@<TRIPOS>MOLECULE
*****
 36 40 0 0 0
SMALL
GASTEIGER

@<TRIPOS>ATOM
      1 C         138.9011  143.3801  163.9549 C.3     1  UNL1        0.1909
      2 C         138.2739  142.2449  164.7084 C.3     1  UNL1        0.1783
      3 O         139.3009  141.6903  165.6507 O.3     1  UNL1       -0.3267
      4 C         140.5629  142.4828  165.4794 C.3     1  UNL1        0.2296
      5 O         140.3159  143.5272  164.4313 O.3     1  UNL1       -0.3255
      6 C         141.0971  141.5640  166.5378 C.ar    1  UNL1        0.0409
      7 C         141.7728  140.2829  166.1476 C.ar    1  UNL1        0.0022
      8 C         142.3070  139.3641  167.2061 C.ar    1  UNL1        0.0113
      9 C         142.1655  139.7264  168.6548 C.ar    1  UNL1        0.0585
     10 CL        142.6997  138.8075  169.7133 Cl      1  UNL1       -0.0822
     11 C         141.4898  141.0075  169.0450 C.ar    1  UNL1        0.0226
     12 C         140.9556  141.9262  167.9866 C.ar    1  UNL1        0.0591
     13 CL        140.2799  143.2073  168.3768 Cl      1  UNL1       -0.0824
     14 C         138.2313  144.2207  162.9085 C.3     1  UNL1        0.2374
     15 O         138.8513  144.3619  161.5500 O.3     1  UNL1       -0.4727
     16 C         140.2188  140.7066  159.3097 C.ar    1  UNL1        0.0481
     17 C         138.8275  140.7680  159.8667 C.ar    1  UNL1        0.0176
     18 C         138.3716  141.9864  160.6135 C.ar    1  UNL1        0.0382
     19 C         139.3071  143.1435  160.8032 C.ar    1  UNL1        0.1388
     20 C         140.6985  143.0821  160.2462 C.ar    1  UNL1        0.0382
     21 C         141.1543  141.8637  159.4994 C.ar    1  UNL1        0.0176
     22 C         143.3869  135.2350  156.6126 C.3     1  UNL1        0.0948
     23 C         142.0422  135.8330  156.3226 C.2     1  UNL1        0.2262
     24 O         141.1533  135.2125  155.2858 O.2     1  UNL1       -0.2749
     25 N         141.5863  137.0514  157.0694 N.am    1  UNL1       -0.2760
     26 C         142.4752  137.6718  158.1062 C.3     1  UNL1        0.1148
     27 C         142.0194  138.8902  158.8529 C.3     1  UNL1        0.1123
     28 N         140.6747  139.4882  158.5629 N.pl3   1  UNL1       -0.3041
     29 C         139.7858  138.8678  157.5261 C.3     1  UNL1        0.1123
     30 C         140.2417  137.6494  156.7794 C.3     1  UNL1        0.1148
     31 C         141.9366  143.0833  165.5294 C.3     1  UNL1        0.1682
     32 N         142.7639  143.1683  164.2810 N.ar    1  UNL1       -0.3025
     33 C         143.5997  144.3388  163.8554 C.ar    1  UNL1        0.0982
     34 C         144.2530  143.9917  162.5505 C.ar    1  UNL1        0.1193
     35 N         143.8209  142.6067  162.1697 N.ar    1  UNL1       -0.2223
     36 C         142.9005  142.0978  163.2393 C.ar    1  UNL1        0.1788
@<TRIPOS>BOND
     1    22    23    1
     2    23    24    2
     3    23    25   am
     4    25    26    1
     5    26    27    1
     6    27    28    1
     7    28    16    1
     8    16    17   ar
     9    17    18   ar
    10    18    19   ar
    11    19    15    1
    12    15    14    1
    13     1    14    1
    14     1     2    1
    15     2     3    1
    16     3     4    1
    17     4    31    1
    18    31    32    1
    19    32    33   ar
    20    33    34   ar
    21    34    35   ar
    22    35    36   ar
    23     4     6    1
    24     6     7   ar
    25     7     8   ar
    26     8     9   ar
    27     9    10    1
    28     9    11   ar
    29    11    12   ar
    30    12    13    1
    31     4     5    1
    32    19    20   ar
    33    20    21   ar
    34    28    29    1
    35    29    30    1
    36    30    25    1
    37    21    16   ar
    38     5     1    1
    39    36    32   ar
    40    12     6   ar
@<TRIPOS>MOLECULE
*****
 36 40 0 0 0
SMALL
GASTEIGER

@<TRIPOS>ATOM
      1 C         142.0668  143.6952  164.1887 C.3     1  UNL1        0.1909
      2 C         140.6026  143.8858  164.4532 C.3     1  UNL1        0.1783
      3 O         140.0757  142.6258  165.0735 O.3     1  UNL1       -0.3267
      4 C         141.2141  141.6564  165.1923 C.3     1  UNL1        0.2296
      5 O         142.4447  142.3172  164.6455 O.3     1  UNL1       -0.3255
      6 C         140.1762  140.7535  165.7901 C.ar    1  UNL1        0.0409
      7 C         140.1365  140.5354  167.2737 C.ar    1  UNL1        0.0022
      8 C         139.0986  139.6325  167.8715 C.ar    1  UNL1        0.0113
      9 C         138.1004  138.9476  166.9858 C.ar    1  UNL1        0.0585
     10 CL        137.0625  138.0446  167.5836 Cl      1  UNL1       -0.0822
     11 C         138.1401  139.1656  165.5022 C.ar    1  UNL1        0.0226
     12 C         139.1780  140.0685  164.9044 C.ar    1  UNL1        0.0591
     13 CL        139.2178  140.2866  163.4209 Cl      1  UNL1       -0.0824
     14 C         142.9907  144.7050  163.5751 C.3     1  UNL1        0.2374
     15 O         143.1026  144.8101  162.0830 O.3     1  UNL1       -0.4727
     16 C         142.3278  141.2014  159.5088 C.ar    1  UNL1        0.0481
     17 C         141.1802  142.0348  159.9969 C.ar    1  UNL1        0.0176
     18 C         141.4384  143.2377  160.8550 C.ar    1  UNL1        0.0382
     19 C         142.8443  143.6072  161.2249 C.ar    1  UNL1        0.1388
     20 C         143.9919  142.7738  160.7368 C.ar    1  UNL1        0.0382
     21 C         143.7337  141.5709  159.8787 C.ar    1  UNL1        0.0176
     22 C         140.2172  136.4297  155.0337 C.3     1  UNL1        0.0948
     23 C         141.2948  136.3898  156.0764 C.2     1  UNL1        0.2262
     24 O         142.1140  135.1469  156.2611 O.2     1  UNL1       -0.2749
     25 N         141.5530  137.5927  156.9345 N.am    1  UNL1       -0.2760
     26 C         140.7338  138.8355  156.7499 C.3     1  UNL1        0.1148
     27 C         140.9920  140.0384  157.6080 C.3     1  UNL1        0.1123
     28 N         142.0695  139.9985  158.6507 N.pl3   1  UNL1       -0.3041
     29 C         142.8888  138.7557  158.8353 C.3     1  UNL1        0.1123
     30 C         142.6305  137.5528  157.9772 C.3     1  UNL1        0.1148
     31 C         142.1357  140.4982  165.4361 C.3     1  UNL1        0.1682
     32 N         142.6805  139.7164  164.2777 N.ar    1  UNL1       -0.3025
     33 C         143.8397  140.1140  163.4130 C.ar    1  UNL1        0.0982
     34 C         144.0373  139.0430  162.3815 C.ar    1  UNL1        0.1193
     35 N         143.0002  137.9834  162.6089 N.ar    1  UNL1       -0.2223
     36 C         142.1616  138.3996  163.7808 C.ar    1  UNL1        0.1788
@<TRIPOS>BOND
     1    22    23    1
     2    23    24    2
     3    23    25   am
     4    25    26    1
     5    26    27    1
     6    27    28    1
     7    28    16    1
     8    16    17   ar
     9    17    18   ar
    10    18    19   ar
    11    19    15    1
    12    15    14    1
    13     1    14    1
    14     1     2    1
    15     2     3    1
    16     3     4    1
    17     4    31    1
    18    31    32    1
    19    32    33   ar
    20    33    34   ar
    21    34    35   ar
    22    35    36   ar
    23     4     6    1
    24     6     7   ar
    25     7     8   ar
    26     8     9   ar
    27     9    10    1
    28     9    11   ar
    29    11    12   ar
    30    12    13    1
    31     4     5    1
    32    19    20   ar
    33    20    21   ar
    34    28    29    1
    35    29    30    1
    36    30    25    1
    37    21    16   ar
    38     5     1    1
    39    36    32   ar
    40    12     6   ar
@<TRIPOS>MOLECULE
*****
 36 40 0 0 0
SMALL
GASTEIGER

@<TRIPOS>ATOM
      1 C         139.0645  140.4332  159.1731 C.3     1  UNL1        0.1909
      2 C         137.7525  140.0280  159.7766 C.3     1  UNL1        0.1783
      3 O         137.9724  139.7784  161.2393 O.3     1  UNL1       -0.3267
      4 C         139.4204  140.0295  161.5397 C.3     1  UNL1        0.2296
      5 O         140.0954  140.4342  160.2627 O.3     1  UNL1       -0.3255
      6 C         139.0312  139.6612  162.9407 C.ar    1  UNL1        0.0409
      7 C         139.1009  138.2308  163.3870 C.ar    1  UNL1        0.0022
      8 C         138.7117  137.8625  164.7881 C.ar    1  UNL1        0.0113
      9 C         138.2527  138.9246  165.7427 C.ar    1  UNL1        0.0585
     10 CL        137.8634  138.5563  167.1437 Cl      1  UNL1       -0.0822
     11 C         138.1829  140.3550  165.2963 C.ar    1  UNL1        0.0226
     12 C         138.5721  140.7232  163.8954 C.ar    1  UNL1        0.0591
     13 CL        138.5024  142.1536  163.4490 Cl      1  UNL1       -0.0824
     14 C         139.3037  140.7771  157.7328 C.3     1  UNL1        0.2374
     15 O         140.6383  140.4993  157.1070 O.3     1  UNL1       -0.4727
     16 C         141.9224  136.2558  156.3365 C.ar    1  UNL1        0.0481
     17 C         142.7605  137.1472  157.2043 C.ar    1  UNL1        0.0176
     18 C         142.3324  138.5617  157.4611 C.ar    1  UNL1        0.0382
     19 C         141.0663  139.0848  156.8501 C.ar    1  UNL1        0.1388
     20 C         140.2283  138.1934  155.9823 C.ar    1  UNL1        0.0382
     21 C         140.6564  136.7789  155.7255 C.ar    1  UNL1        0.0176
     22 C         142.6909  129.6367  154.6492 C.3     1  UNL1        0.0948
     23 C         143.6346  130.5978  155.3091 C.2     1  UNL1        0.2262
     24 O         145.0064  130.1444  155.7123 O.2     1  UNL1       -0.2749
     25 N         143.2066  132.0123  155.5660 N.am    1  UNL1       -0.2760
     26 C         141.8348  132.4657  155.1628 C.3     1  UNL1        0.1148
     27 C         141.4067  133.8802  155.4197 C.3     1  UNL1        0.1123
     28 N         142.3505  134.8413  156.0796 N.pl3   1  UNL1       -0.3041
     29 C         143.7223  134.3879  156.4828 C.3     1  UNL1        0.1123
     30 C         144.1503  132.9734  156.2259 C.3     1  UNL1        0.1148
     31 C         140.7871  140.2036  162.1330 C.3     1  UNL1        0.1682
     32 N         141.9447  139.4167  161.5938 N.ar    1  UNL1       -0.3025
     33 C         143.2861  139.9698  161.2136 C.ar    1  UNL1        0.0982
     34 C         144.1345  138.8334  160.7250 C.ar    1  UNL1        0.1193
     35 N         143.3174  137.5779  160.8031 N.ar    1  UNL1       -0.2223
     36 C         141.9640  137.9384  161.3401 C.ar    1  UNL1        0.1788
@<TRIPOS>BOND
     1    22    23    1
     2    23    24    2
     3    23    25   am
     4    25    26    1
     5    26    27    1
     6    27    28    1
     7    28    16    1
     8    16    17   ar
     9    17    18   ar
    10    18    19   ar
    11    19    15    1
    12    15    14    1
    13     1    14    1
    14     1     2    1
    15     2     3    1
    16     3     4    1
    17     4    31    1
    18    31    32    1
    19    32    33   ar
    20    33    34   ar
    21    34    35   ar
    22    35    36   ar
    23     4     6    1
    24     6     7   ar
    25     7     8   ar
    26     8     9   ar
    27     9    10    1
    28     9    11   ar
    29    11    12   ar
    30    12    13    1
    31     4     5    1
    32    19    20   ar
    33    20    21   ar
    34    28    29    1
    35    29    30    1
    36    30    25    1
    37    21    16   ar
    38     5     1    1
    39    36    32   ar
    40    12     6   ar
