@<TRIPOS>MOLECULE
*****
 35 39 0 0 0
SMALL
GASTEIGER

@<TRIPOS>ATOM
      1 C         141.2465  137.8871  162.0817 C.3     1  UNL1        0.0769
      2 C         139.7591  137.9029  161.8878 C.3     1  UNL1        0.0104
      3 C         138.8473  137.7291  163.0661 C.3     1  UNL1        0.0162
      4 C         139.4228  137.5394  164.4383 C.3     1  UNL1        0.0542
      5 C         140.9101  137.5236  164.6322 C.3     1  UNL1        0.0162
      6 C         141.8220  137.6975  163.4538 C.3     1  UNL1        0.0104
      7 N         141.6302  138.6430  159.6258 N.am    1  UNL1       -0.2838
      8 C         142.1583  138.0609  160.9035 C.2     1  UNL1        0.2256
      9 O         143.5982  137.6527  161.0028 O.2     1  UNL1       -0.2748
     10 H         140.6851  138.9110  159.5606 H       1  UNL1        0.1549
     11 C         144.1947  142.3254  159.2894 C.ar    1  UNL1        0.1389
     12 C         145.1065  142.4992  158.1112 C.ar    1  UNL1        0.0384
     13 C         145.1636  141.4456  157.0451 C.ar    1  UNL1        0.0223
     14 C         144.3087  140.2182  157.1572 C.ar    1  UNL1        0.0827
     15 N         144.3657  139.1646  156.0910 N.ar    1  UNL1       -0.2438
     16 C         143.5109  137.9371  156.2031 C.ar    1  UNL1        0.1001
     17 C         142.5990  137.7632  157.3814 C.ar    1  UNL1        0.0353
     18 C         142.5420  138.8169  158.4476 C.ar    1  UNL1        0.0534
     19 C         143.3969  140.0444  158.3354 C.ar    1  UNL1        0.0342
     20 C         143.3399  141.0980  159.4015 C.ar    1  UNL1        0.0396
     21 C         144.4826  143.0309  161.7732 C.3     1  UNL1        0.2525
     22 O         144.1377  143.3790  160.3556 O.3     1  UNL1       -0.4714
     23 N         138.5110  137.3656  165.6165 N.3     1  UNL1       -0.2948
     24 H         138.9804  136.7293  166.2608 H       1  UNL1        0.1235
     25 C         138.0868  138.5597  166.4193 C.3     1  UNL1        0.0957
     26 C         138.5580  139.9299  166.0315 C.ar    1  UNL1       -0.0032
     27 C         139.7261  140.5497  166.7398 C.ar    1  UNL1        0.0004
     28 C         140.1973  141.9199  166.3521 C.ar    1  UNL1        0.0398
     29 C         139.5005  142.6704  165.2561 C.ar    1  UNL1        0.1724
     30 C         138.3325  142.0507  164.5478 C.ar    1  UNL1        0.1721
     31 C         137.8613  140.6804  164.9355 C.ar    1  UNL1        0.0371
     32 O         137.6358  142.8012  163.4517 O.3     1  UNL1       -0.4684
     33 C         138.1070  144.1714  163.0640 C.3     1  UNL1        0.2526
     34 C         139.2750  144.7912  163.7723 C.3     1  UNL1        0.2526
     35 O         139.9718  144.0407  164.8683 O.3     1  UNL1       -0.4684
@<TRIPOS>BOND
     1    21    22    1
     2    22    11    1
     3    11    12   ar
     4    12    13   ar
     5    13    14   ar
     6    14    15   ar
     7    15    16   ar
     8    16    17   ar
     9    17    18   ar
    10    18     7    1
    11     7     8   am
    12     8     9    2
    13     1     8    1
    14     1     2    1
    15     2     3    1
    16     3     4    1
    17     4    23    1
    18    23    25    1
    19    25    26    1
    20    26    27   ar
    21    27    28   ar
    22    28    29   ar
    23    29    30   ar
    24    30    31   ar
    25    30    32    1
    26    32    33    1
    27    33    34    1
    28    34    35    1
    29     4     5    1
    30     5     6    1
    31    18    19   ar
    32    19    20   ar
    33    20    11   ar
    34    19    14   ar
    35     6     1    1
    36    31    26   ar
    37    35    29    1
    38     7    10    1
    39    23    24    1
@<TRIPOS>MOLECULE
*****
 35 39 0 0 0
SMALL
GASTEIGER

@<TRIPOS>ATOM
      1 C         141.2484  138.2114  161.7225 C.3     1  UNL1        0.0769
      2 C         139.7565  138.1166  161.5992 C.3     1  UNL1        0.0104
      3 C         138.9228  137.8007  162.8054 C.3     1  UNL1        0.0162
      4 C         139.5810  137.5794  164.1350 C.3     1  UNL1        0.0542
      5 C         141.0729  137.6742  164.2584 C.3     1  UNL1        0.0162
      6 C         141.9066  137.9902  163.0521 C.3     1  UNL1        0.0104
      7 N         141.4214  138.7851  159.1944 N.am    1  UNL1       -0.2838
      8 C         142.0821  138.5274  160.5163 C.2     1  UNL1        0.2256
      9 O         143.5765  138.5858  160.6318 O.2     1  UNL1       -0.2748
     10 H         140.4406  138.7467  159.1186 H       1  UNL1        0.1549
     11 C         143.2291  135.4509  156.7725 C.ar    1  UNL1        0.1389
     12 C         144.0628  135.7669  155.5663 C.ar    1  UNL1        0.0384
     13 C         144.2940  137.1943  155.1674 C.ar    1  UNL1        0.0223
     14 C         143.6915  138.3056  155.9746 C.ar    1  UNL1        0.0827
     15 N         143.9226  139.7330  155.5757 N.ar    1  UNL1       -0.2438
     16 C         143.3201  140.8444  156.3830 C.ar    1  UNL1        0.1001
     17 C         142.4863  140.5284  157.5893 C.ar    1  UNL1        0.0353
     18 C         142.2552  139.1010  157.9882 C.ar    1  UNL1        0.0534
     19 C         142.8578  137.9896  157.1809 C.ar    1  UNL1        0.0342
     20 C         142.6266  136.5623  157.5798 C.ar    1  UNL1        0.0396
     21 C         144.1631  133.1403  157.5067 C.3     1  UNL1        0.2525
     22 O         142.9980  134.0235  157.1715 O.3     1  UNL1       -0.4714
     23 N         138.7473  137.2634  165.3413 N.3     1  UNL1       -0.2948
     24 H         139.3230  136.6860  165.9541 H       1  UNL1        0.1235
     25 C         138.1970  138.3750  166.1848 C.3     1  UNL1        0.0957
     26 C         138.6120  139.7922  165.9216 C.ar    1  UNL1       -0.0032
     27 C         139.7396  140.4008  166.7016 C.ar    1  UNL1        0.0004
     28 C         140.1545  141.8179  166.4384 C.ar    1  UNL1        0.0398
     29 C         139.4419  142.6267  165.3952 C.ar    1  UNL1        0.1724
     30 C         138.3144  142.0182  164.6153 C.ar    1  UNL1        0.1721
     31 C         137.8993  140.6009  164.8785 C.ar    1  UNL1        0.0371
     32 O         137.6017  142.8270  163.5721 O.3     1  UNL1       -0.4684
     33 C         138.0167  144.2442  163.3089 C.3     1  UNL1        0.2526
     34 C         139.1443  144.8527  164.0889 C.3     1  UNL1        0.2526
     35 O         139.8569  144.0440  165.1320 O.3     1  UNL1       -0.4684
@<TRIPOS>BOND
     1    21    22    1
     2    22    11    1
     3    11    12   ar
     4    12    13   ar
     5    13    14   ar
     6    14    15   ar
     7    15    16   ar
     8    16    17   ar
     9    17    18   ar
    10    18     7    1
    11     7     8   am
    12     8     9    2
    13     1     8    1
    14     1     2    1
    15     2     3    1
    16     3     4    1
    17     4    23    1
    18    23    25    1
    19    25    26    1
    20    26    27   ar
    21    27    28   ar
    22    28    29   ar
    23    29    30   ar
    24    30    31   ar
    25    30    32    1
    26    32    33    1
    27    33    34    1
    28    34    35    1
    29     4     5    1
    30     5     6    1
    31    18    19   ar
    32    19    20   ar
    33    20    11   ar
    34    19    14   ar
    35     6     1    1
    36    31    26   ar
    37    35    29    1
    38     7    10    1
    39    23    24    1
@<TRIPOS>MOLECULE
*****
 35 39 0 0 0
SMALL
GASTEIGER

@<TRIPOS>ATOM
      1 C         140.7923  138.5155  161.4516 C.3     1  UNL1        0.0769
      2 C         140.1870  138.8320  160.1161 C.3     1  UNL1        0.0104
      3 C         140.9620  138.5666  158.8596 C.3     1  UNL1        0.0162
      4 C         142.3424  137.9847  158.9385 C.3     1  UNL1        0.0542
      5 C         142.9476  137.6683  160.2740 C.3     1  UNL1        0.0162
      6 C         142.1725  137.9336  161.5306 C.3     1  UNL1        0.0104
      7 N         140.5408  138.2981  164.0284 N.am    1  UNL1       -0.2838
      8 C         140.0173  138.7808  162.7081 C.2     1  UNL1        0.2256
      9 O         138.7187  139.5290  162.6445 O.2     1  UNL1       -0.2748
     10 H         141.3931  137.8070  164.0701 H       1  UNL1        0.1549
     11 C         142.0104  141.3677  166.9724 C.ar    1  UNL1        0.1389
     12 C         141.2354  141.6330  168.2289 C.ar    1  UNL1        0.0384
     13 C         139.9705  140.8752  168.5041 C.ar    1  UNL1        0.0223
     14 C         139.4806  139.8520  167.5228 C.ar    1  UNL1        0.0827
     15 N         138.2157  139.0942  167.7980 N.ar    1  UNL1       -0.2438
     16 C         137.7259  138.0710  166.8167 C.ar    1  UNL1        0.1001
     17 C         138.5009  137.8056  165.5601 C.ar    1  UNL1        0.0353
     18 C         139.7658  138.5634  165.2849 C.ar    1  UNL1        0.0534
     19 C         140.2556  139.5866  166.2663 C.ar    1  UNL1        0.0342
     20 C         141.5205  140.3445  165.9911 C.ar    1  UNL1        0.0396
     21 C         143.4720  142.8007  165.3723 C.3     1  UNL1        0.2525
     22 O         143.2753  142.1255  166.6972 O.3     1  UNL1       -0.4714
     23 N         143.1174  137.7194  157.6820 N.3     1  UNL1       -0.2948
     24 H         143.9320  137.1669  157.9496 H       1  UNL1        0.1235
     25 C         142.4660  137.0034  156.5361 C.3     1  UNL1        0.0957
     26 C         142.5247  135.5067  156.4561 C.ar    1  UNL1       -0.0032
     27 C         141.5515  134.7632  155.5900 C.ar    1  UNL1        0.0004
     28 C         141.6102  133.2665  155.5100 C.ar    1  UNL1        0.0398
     29 C         142.6421  132.5133  156.2961 C.ar    1  UNL1        0.1724
     30 C         143.6153  133.2568  157.1621 C.ar    1  UNL1        0.1721
     31 C         143.5566  134.7535  157.2422 C.ar    1  UNL1        0.0371
     32 O         144.6472  132.5036  157.9482 O.3     1  UNL1       -0.4684
     33 C         144.7059  131.0069  157.8682 C.3     1  UNL1        0.2526
     34 C         143.7327  130.2633  157.0021 C.3     1  UNL1        0.2526
     35 O         142.7008  131.0165  156.2160 O.3     1  UNL1       -0.4684
@<TRIPOS>BOND
     1    21    22    1
     2    22    11    1
     3    11    12   ar
     4    12    13   ar
     5    13    14   ar
     6    14    15   ar
     7    15    16   ar
     8    16    17   ar
     9    17    18   ar
    10    18     7    1
    11     7     8   am
    12     8     9    2
    13     1     8    1
    14     1     2    1
    15     2     3    1
    16     3     4    1
    17     4    23    1
    18    23    25    1
    19    25    26    1
    20    26    27   ar
    21    27    28   ar
    22    28    29   ar
    23    29    30   ar
    24    30    31   ar
    25    30    32    1
    26    32    33    1
    27    33    34    1
    28    34    35    1
    29     4     5    1
    30     5     6    1
    31    18    19   ar
    32    19    20   ar
    33    20    11   ar
    34    19    14   ar
    35     6     1    1
    36    31    26   ar
    37    35    29    1
    38     7    10    1
    39    23    24    1
@<TRIPOS>MOLECULE
*****
 35 39 0 0 0
SMALL
GASTEIGER

@<TRIPOS>ATOM
      1 C         143.2029  139.5104  160.3024 C.3     1  UNL1        0.0769
      2 C         143.5794  138.8500  161.5956 C.3     1  UNL1        0.0104
      3 C         144.3839  139.6008  162.6148 C.3     1  UNL1        0.0162
      4 C         144.8121  141.0121  162.3410 C.3     1  UNL1        0.0542
      5 C         144.4356  141.6726  161.0479 C.3     1  UNL1        0.0162
      6 C         143.6311  140.9217  160.0286 C.3     1  UNL1        0.0104
      7 N         143.0102  138.3996  157.9617 N.am    1  UNL1       -0.2838
      8 C         142.3984  138.7596  159.2832 C.2     1  UNL1        0.2256
      9 O         140.9821  138.3688  159.5853 O.2     1  UNL1       -0.2748
     10 H         143.9398  138.6561  157.7634 H       1  UNL1        0.1549
     11 C         143.6282  133.9750  157.4221 C.ar    1  UNL1        0.1389
     12 C         142.8237  133.2242  156.4029 C.ar    1  UNL1        0.0384
     13 C         141.8132  133.9482  155.5634 C.ar    1  UNL1        0.0223
     14 C         141.6071  135.4230  155.7433 C.ar    1  UNL1        0.0827
     15 N         140.5966  136.1470  154.9039 N.ar    1  UNL1       -0.2438
     16 C         140.3906  137.6218  155.0837 C.ar    1  UNL1        0.1001
     17 C         141.1951  138.3727  156.1031 C.ar    1  UNL1        0.0353
     18 C         142.2057  137.6487  156.9425 C.ar    1  UNL1        0.0534
     19 C         142.4117  136.1738  156.7626 C.ar    1  UNL1        0.0342
     20 C         143.4222  135.4498  157.6020 C.ar    1  UNL1        0.0396
     21 C         145.2816  131.9974  157.7466 C.3     1  UNL1        0.2525
     22 O         144.6388  133.2510  158.2615 O.3     1  UNL1       -0.4714
     23 N         145.6166  141.7630  163.3603 N.3     1  UNL1       -0.2948
     24 H         146.1171  142.4964  162.8583 H       1  UNL1        0.1235
     25 C         144.9305  142.4225  164.5197 C.3     1  UNL1        0.0957
     26 C         143.6062  143.0984  164.3218 C.ar    1  UNL1       -0.0032
     27 C         143.5511  144.4970  163.7822 C.ar    1  UNL1        0.0004
     28 C         142.2267  145.1729  163.5843 C.ar    1  UNL1        0.0398
     29 C         140.9574  144.4503  163.9260 C.ar    1  UNL1        0.1724
     30 C         141.0125  143.0519  164.4656 C.ar    1  UNL1        0.1721
     31 C         142.3369  142.3759  164.6636 C.ar    1  UNL1        0.0371
     32 O         139.7431  142.3293  164.8074 O.3     1  UNL1       -0.4684
     33 C         138.4188  143.0052  164.6095 C.3     1  UNL1        0.2526
     34 C         138.3637  144.4038  164.0699 C.3     1  UNL1        0.2526
     35 O         139.6330  145.1263  163.7281 O.3     1  UNL1       -0.4684
@<TRIPOS>BOND
     1    21    22    1
     2    22    11    1
     3    11    12   ar
     4    12    13   ar
     5    13    14   ar
     6    14    15   ar
     7    15    16   ar
     8    16    17   ar
     9    17    18   ar
    10    18     7    1
    11     7     8   am
    12     8     9    2
    13     1     8    1
    14     1     2    1
    15     2     3    1
    16     3     4    1
    17     4    23    1
    18    23    25    1
    19    25    26    1
    20    26    27   ar
    21    27    28   ar
    22    28    29   ar
    23    29    30   ar
    24    30    31   ar
    25    30    32    1
    26    32    33    1
    27    33    34    1
    28    34    35    1
    29     4     5    1
    30     5     6    1
    31    18    19   ar
    32    19    20   ar
    33    20    11   ar
    34    19    14   ar
    35     6     1    1
    36    31    26   ar
    37    35    29    1
    38     7    10    1
    39    23    24    1
@<TRIPOS>MOLECULE
*****
 35 39 0 0 0
SMALL
GASTEIGER

@<TRIPOS>ATOM
      1 C         141.2974  138.2399  161.7573 C.3     1  UNL1        0.0769
      2 C         141.9890  137.8932  163.0424 C.3     1  UNL1        0.0104
      3 C         141.1823  137.5933  164.2710 C.3     1  UNL1        0.0162
      4 C         139.6841  137.6402  164.2144 C.3     1  UNL1        0.0542
      5 C         138.9925  137.9870  162.9293 C.3     1  UNL1        0.0162
      6 C         139.7993  138.2869  161.7007 C.3     1  UNL1        0.0104
      7 N         141.4150  138.7636  159.2152 N.am    1  UNL1       -0.2838
      8 C         142.1041  138.5398  160.5288 C.2     1  UNL1        0.2256
      9 O         143.5997  138.6159  160.6136 O.2     1  UNL1       -0.2748
     10 H         140.4334  138.7136  159.1595 H       1  UNL1        0.1549
     11 C         143.2544  135.4023  156.8555 C.ar    1  UNL1        0.1389
     12 C         144.0611  135.7022  155.6270 C.ar    1  UNL1        0.0384
     13 C         144.2546  137.1225  155.1850 C.ar    1  UNL1        0.0223
     14 C         143.6415  138.2429  155.9715 C.ar    1  UNL1        0.0827
     15 N         143.8350  139.6632  155.5295 N.ar    1  UNL1       -0.2438
     16 C         143.2219  140.7836  156.3161 C.ar    1  UNL1        0.1001
     17 C         142.4152  140.4837  157.5447 C.ar    1  UNL1        0.0353
     18 C         142.2217  139.0635  157.9867 C.ar    1  UNL1        0.0534
     19 C         142.8348  137.9430  157.2001 C.ar    1  UNL1        0.0342
     20 C         142.6413  136.5227  157.6421 C.ar    1  UNL1        0.0396
     21 C         144.2472  133.1468  157.6783 C.3     1  UNL1        0.2525
     22 O         143.0609  133.9820  157.2975 O.3     1  UNL1       -0.4714
     23 N         138.8774  137.3403  165.4430 N.3     1  UNL1       -0.2948
     24 H         139.5205  136.9425  166.1276 H       1  UNL1        0.1235
     25 C         138.1318  138.4409  166.1378 C.3     1  UNL1        0.0957
     26 C         138.8821  139.5941  166.7354 C.ar    1  UNL1       -0.0032
     27 C         139.3842  140.6996  165.8545 C.ar    1  UNL1        0.0004
     28 C         140.1345  141.8528  166.4521 C.ar    1  UNL1        0.0398
     29 C         140.3828  141.9006  167.9306 C.ar    1  UNL1        0.1724
     30 C         139.8807  140.7952  168.8116 C.ar    1  UNL1        0.1721
     31 C         139.1304  139.6419  168.2140 C.ar    1  UNL1        0.0371
     32 O         140.1290  140.8430  170.2901 O.3     1  UNL1       -0.4684
     33 C         140.8793  141.9962  170.8877 C.3     1  UNL1        0.2526
     34 C         141.3813  143.1017  170.0068 C.3     1  UNL1        0.2526
     35 O         141.1331  143.0538  168.5282 O.3     1  UNL1       -0.4684
@<TRIPOS>BOND
     1    21    22    1
     2    22    11    1
     3    11    12   ar
     4    12    13   ar
     5    13    14   ar
     6    14    15   ar
     7    15    16   ar
     8    16    17   ar
     9    17    18   ar
    10    18     7    1
    11     7     8   am
    12     8     9    2
    13     1     8    1
    14     1     2    1
    15     2     3    1
    16     3     4    1
    17     4    23    1
    18    23    25    1
    19    25    26    1
    20    26    27   ar
    21    27    28   ar
    22    28    29   ar
    23    29    30   ar
    24    30    31   ar
    25    30    32    1
    26    32    33    1
    27    33    34    1
    28    34    35    1
    29     4     5    1
    30     5     6    1
    31    18    19   ar
    32    19    20   ar
    33    20    11   ar
    34    19    14   ar
    35     6     1    1
    36    31    26   ar
    37    35    29    1
    38     7    10    1
    39    23    24    1
@<TRIPOS>MOLECULE
*****
 35 39 0 0 0
SMALL
GASTEIGER

@<TRIPOS>ATOM
      1 C         142.1971  138.4693  161.1554 C.3     1  UNL1        0.0769
      2 C         143.2905  139.2722  161.7955 C.3     1  UNL1        0.0104
      3 C         143.4725  139.2390  163.2840 C.3     1  UNL1        0.0162
      4 C         142.5611  138.4027  164.1326 C.3     1  UNL1        0.0542
      5 C         141.4676  137.5998  163.4925 C.3     1  UNL1        0.0162
      6 C         141.2856  137.6331  162.0039 C.3     1  UNL1        0.0104
      7 N         143.2026  138.3538  158.7626 N.am    1  UNL1       -0.2838
      8 C         142.0151  138.5025  159.6669 C.2     1  UNL1        0.2256
      9 O         140.6456  138.6845  159.0826 O.2     1  UNL1       -0.2748
     10 H         144.1015  138.2343  159.1461 H       1  UNL1        0.1549
     11 C         142.7297  134.5122  156.4674 C.ar    1  UNL1        0.1389
     12 C         142.5477  134.5454  154.9788 C.ar    1  UNL1        0.0384
     13 C         142.5233  135.8592  154.2554 C.ar    1  UNL1        0.0223
     14 C         142.6810  137.1397  155.0204 C.ar    1  UNL1        0.0827
     15 N         142.6566  138.4535  154.2970 N.ar    1  UNL1       -0.2438
     16 C         142.8143  139.7340  155.0620 C.ar    1  UNL1        0.1001
     17 C         142.9963  139.7008  156.5506 C.ar    1  UNL1        0.0353
     18 C         143.0206  138.3870  157.2741 C.ar    1  UNL1        0.0534
     19 C         142.8630  137.1065  156.5089 C.ar    1  UNL1        0.0342
     20 C         142.8873  135.7927  157.2324 C.ar    1  UNL1        0.0396
     21 C         142.6885  131.9149  156.4173 C.3     1  UNL1        0.2525
     22 O         142.7540  133.1984  157.1908 O.3     1  UNL1       -0.4714
     23 N         142.7430  138.3695  165.6211 N.3     1  UNL1       -0.2948
     24 H         143.7395  138.4957  165.7988 H       1  UNL1        0.1235
     25 C         142.0202  139.3579  166.4873 C.3     1  UNL1        0.0957
     26 C         140.9081  140.1852  165.9140 C.ar    1  UNL1       -0.0032
     27 C         139.5205  139.6214  165.8296 C.ar    1  UNL1        0.0004
     28 C         138.4084  140.4487  165.2562 C.ar    1  UNL1        0.0398
     29 C         138.6837  141.8398  164.7673 C.ar    1  UNL1        0.1724
     30 C         140.0712  142.4036  164.8517 C.ar    1  UNL1        0.1721
     31 C         141.1834  141.5763  165.4250 C.ar    1  UNL1        0.0371
     32 O         140.3465  143.7947  164.3627 O.3     1  UNL1       -0.4684
     33 C         139.2344  144.6220  163.7894 C.3     1  UNL1        0.2526
     34 C         137.8469  144.0582  163.7050 C.3     1  UNL1        0.2526
     35 O         137.5715  142.6671  164.1939 O.3     1  UNL1       -0.4684
@<TRIPOS>BOND
     1    21    22    1
     2    22    11    1
     3    11    12   ar
     4    12    13   ar
     5    13    14   ar
     6    14    15   ar
     7    15    16   ar
     8    16    17   ar
     9    17    18   ar
    10    18     7    1
    11     7     8   am
    12     8     9    2
    13     1     8    1
    14     1     2    1
    15     2     3    1
    16     3     4    1
    17     4    23    1
    18    23    25    1
    19    25    26    1
    20    26    27   ar
    21    27    28   ar
    22    28    29   ar
    23    29    30   ar
    24    30    31   ar
    25    30    32    1
    26    32    33    1
    27    33    34    1
    28    34    35    1
    29     4     5    1
    30     5     6    1
    31    18    19   ar
    32    19    20   ar
    33    20    11   ar
    34    19    14   ar
    35     6     1    1
    36    31    26   ar
    37    35    29    1
    38     7    10    1
    39    23    24    1
@<TRIPOS>MOLECULE
*****
 35 39 0 0 0
SMALL
GASTEIGER

@<TRIPOS>ATOM
      1 C         141.6843  144.6768  161.5529 C.3     1  UNL1        0.0769
      2 C         142.7588  143.6348  161.4543 C.3     1  UNL1        0.0104
      3 C         143.6498  143.3628  162.6299 C.3     1  UNL1        0.0162
      4 C         143.4664  144.1329  163.9041 C.3     1  UNL1        0.0542
      5 C         142.3919  145.1749  164.0026 C.3     1  UNL1        0.0162
      6 C         141.5008  145.4468  162.8269 C.3     1  UNL1        0.0104
      7 N         141.0605  144.2779  159.0625 N.am    1  UNL1       -0.2838
      8 C         140.7932  144.9487  160.3773 C.2     1  UNL1        0.2256
      9 O         139.6348  145.8915  160.5164 O.2     1  UNL1       -0.2748
     10 H         141.8207  143.6591  158.9712 H       1  UNL1        0.1549
     11 C         137.9361  141.2693  157.8639 C.ar    1  UNL1        0.1389
     12 C         137.0450  141.5412  156.6884 C.ar    1  UNL1        0.0384
     13 C         137.1954  142.8160  155.9123 C.ar    1  UNL1        0.0223
     14 C         138.2368  143.8189  156.3118 C.ar    1  UNL1        0.0827
     15 N         138.3872  145.0937  155.5358 N.ar    1  UNL1       -0.2438
     16 C         139.4286  146.0966  155.9353 C.ar    1  UNL1        0.1001
     17 C         140.3198  145.8246  157.1109 C.ar    1  UNL1        0.0353
     18 C         140.1694  144.5498  157.8869 C.ar    1  UNL1        0.0534
     19 C         139.1279  143.5469  157.4874 C.ar    1  UNL1        0.0342
     20 C         138.9775  142.2721  158.2634 C.ar    1  UNL1        0.0396
     21 C         138.8572  139.5701  159.6000 C.3     1  UNL1        0.2525
     22 O         137.7858  139.9945  158.6400 O.3     1  UNL1       -0.4714
     23 N         144.3575  143.8610  165.0796 N.3     1  UNL1       -0.2948
     24 H         144.5110  144.7551  165.5458 H       1  UNL1        0.1235
     25 C         143.9271  142.8891  166.1380 C.3     1  UNL1        0.0957
     26 C         142.7879  141.9495  165.8749 C.ar    1  UNL1       -0.0032
     27 C         141.3788  142.3828  166.1523 C.ar    1  UNL1        0.0004
     28 C         140.2396  141.4432  165.8892 C.ar    1  UNL1        0.0398
     29 C         140.5093  140.0703  165.3487 C.ar    1  UNL1        0.1724
     30 C         141.9183  139.6369  165.0713 C.ar    1  UNL1        0.1721
     31 C         143.0576  140.5765  165.3344 C.ar    1  UNL1        0.0371
     32 O         142.1880  138.2639  164.5307 O.3     1  UNL1       -0.4684
     33 C         141.0488  137.3243  164.2676 C.3     1  UNL1        0.2526
     34 C         139.6398  137.7577  164.5450 C.3     1  UNL1        0.2526
     35 O         139.3700  139.1306  165.0855 O.3     1  UNL1       -0.4684
@<TRIPOS>BOND
     1    21    22    1
     2    22    11    1
     3    11    12   ar
     4    12    13   ar
     5    13    14   ar
     6    14    15   ar
     7    15    16   ar
     8    16    17   ar
     9    17    18   ar
    10    18     7    1
    11     7     8   am
    12     8     9    2
    13     1     8    1
    14     1     2    1
    15     2     3    1
    16     3     4    1
    17     4    23    1
    18    23    25    1
    19    25    26    1
    20    26    27   ar
    21    27    28   ar
    22    28    29   ar
    23    29    30   ar
    24    30    31   ar
    25    30    32    1
    26    32    33    1
    27    33    34    1
    28    34    35    1
    29     4     5    1
    30     5     6    1
    31    18    19   ar
    32    19    20   ar
    33    20    11   ar
    34    19    14   ar
    35     6     1    1
    36    31    26   ar
    37    35    29    1
    38     7    10    1
    39    23    24    1
@<TRIPOS>MOLECULE
*****
 35 39 0 0 0
SMALL
GASTEIGER

@<TRIPOS>ATOM
      1 C         142.4204  138.3751  160.1113 C.3     1  UNL1        0.0769
      2 C         141.3680  138.1975  161.1652 C.3     1  UNL1        0.0104
      3 C         141.7092  138.4140  162.6098 C.3     1  UNL1        0.0162
      4 C         143.1028  138.8082  163.0004 C.3     1  UNL1        0.0542
      5 C         144.1552  138.9858  161.9464 C.3     1  UNL1        0.0162
      6 C         143.8140  138.7693  160.5018 C.3     1  UNL1        0.0104
      7 N         143.1719  137.9374  157.6630 N.am    1  UNL1       -0.2838
      8 C         142.0793  138.1586  158.6667 C.2     1  UNL1        0.2256
      9 O         140.6455  138.1633  158.2258 O.2     1  UNL1       -0.2748
     10 H         144.1129  137.9343  157.9524 H       1  UNL1        0.1549
     11 C         142.4648  133.7704  156.1183 C.ar    1  UNL1        0.1389
     12 C         142.1236  133.5539  154.6738 C.ar    1  UNL1        0.0384
     13 C         142.0182  134.7263  153.7442 C.ar    1  UNL1        0.0223
     14 C         142.2539  136.1153  154.2590 C.ar    1  UNL1        0.0827
     15 N         142.1484  137.2877  153.3294 N.ar    1  UNL1       -0.2438
     16 C         142.3841  138.6767  153.8443 C.ar    1  UNL1        0.1001
     17 C         142.7253  138.8933  155.2889 C.ar    1  UNL1        0.0353
     18 C         142.8307  137.7208  156.2185 C.ar    1  UNL1        0.0534
     19 C         142.5950  136.3318  155.7036 C.ar    1  UNL1        0.0342
     20 C         142.7005  135.1594  156.6332 C.ar    1  UNL1        0.0396
     21 C         143.3080  131.3645  156.6188 C.3     1  UNL1        0.2525
     22 O         142.5702  132.5979  157.0480 O.3     1  UNL1       -0.4714
     23 N         143.4439  139.0247  164.4449 N.3     1  UNL1       -0.2948
     24 H         143.3895  140.0293  164.6129 H       1  UNL1        0.1235
     25 C         142.6289  138.3618  165.5155 C.3     1  UNL1        0.0957
     26 C         141.9116  139.1948  166.5361 C.ar    1  UNL1       -0.0032
     27 C         140.4916  139.6151  166.2973 C.ar    1  UNL1        0.0004
     28 C         139.7743  140.4481  167.3179 C.ar    1  UNL1        0.0398
     29 C         140.4770  140.8609  168.5772 C.ar    1  UNL1        0.1724
     30 C         141.8969  140.4406  168.8159 C.ar    1  UNL1        0.1721
     31 C         142.6143  139.6076  167.7954 C.ar    1  UNL1        0.0371
     32 O         142.5996  140.8534  170.0752 O.3     1  UNL1       -0.4684
     33 C         141.8823  141.6864  171.0958 C.3     1  UNL1        0.2526
     34 C         140.4623  142.1067  170.8570 C.3     1  UNL1        0.2526
     35 O         139.7596  141.6939  169.5977 O.3     1  UNL1       -0.4684
@<TRIPOS>BOND
     1    21    22    1
     2    22    11    1
     3    11    12   ar
     4    12    13   ar
     5    13    14   ar
     6    14    15   ar
     7    15    16   ar
     8    16    17   ar
     9    17    18   ar
    10    18     7    1
    11     7     8   am
    12     8     9    2
    13     1     8    1
    14     1     2    1
    15     2     3    1
    16     3     4    1
    17     4    23    1
    18    23    25    1
    19    25    26    1
    20    26    27   ar
    21    27    28   ar
    22    28    29   ar
    23    29    30   ar
    24    30    31   ar
    25    30    32    1
    26    32    33    1
    27    33    34    1
    28    34    35    1
    29     4     5    1
    30     5     6    1
    31    18    19   ar
    32    19    20   ar
    33    20    11   ar
    34    19    14   ar
    35     6     1    1
    36    31    26   ar
    37    35    29    1
    38     7    10    1
    39    23    24    1
@<TRIPOS>MOLECULE
*****
 35 39 0 0 0
SMALL
GASTEIGER

@<TRIPOS>ATOM
      1 C         143.4529  139.5098  160.6076 C.3     1  UNL1        0.0769
      2 C         143.7492  140.9129  160.1676 C.3     1  UNL1        0.0104
      3 C         144.4731  141.8504  161.0878 C.3     1  UNL1        0.0162
      4 C         144.9009  141.3849  162.4481 C.3     1  UNL1        0.0542
      5 C         144.6047  139.9818  162.8881 C.3     1  UNL1        0.0162
      6 C         143.8806  139.0442  161.9678 C.3     1  UNL1        0.0104
      7 N         143.1875  138.4111  158.2683 N.am    1  UNL1       -0.2838
      8 C         142.7289  138.5723  159.6874 C.2     1  UNL1        0.2256
      9 O         141.5464  137.7958  160.1862 O.2     1  UNL1       -0.2748
     10 H         143.9636  138.9207  157.9408 H       1  UNL1        0.1549
     11 C         139.3660  139.7133  156.2806 C.ar    1  UNL1        0.1389
     12 C         138.6420  138.7758  155.3604 C.ar    1  UNL1        0.0384
     13 C         139.1919  137.4042  155.1027 C.ar    1  UNL1        0.0223
     14 C         140.4656  136.9701  155.7652 C.ar    1  UNL1        0.0827
     15 N         141.0155  135.5985  155.5076 N.ar    1  UNL1       -0.2438
     16 C         142.2892  135.1644  156.1701 C.ar    1  UNL1        0.1001
     17 C         143.0133  136.1020  157.0904 C.ar    1  UNL1        0.0353
     18 C         142.4635  137.4736  157.3480 C.ar    1  UNL1        0.0534
     19 C         141.1896  137.9076  156.6855 C.ar    1  UNL1        0.0342
     20 C         140.6398  139.2792  156.9431 C.ar    1  UNL1        0.0396
     21 C         137.4597  141.2449  157.1580 C.3     1  UNL1        0.2525
     22 O         138.8162  141.0849  156.5383 O.3     1  UNL1       -0.4714
     23 N         145.6249  142.3224  163.3683 N.3     1  UNL1       -0.2948
     24 H         145.9558  143.0994  162.7963 H       1  UNL1        0.1235
     25 C         144.9095  142.9227  164.5421 C.3     1  UNL1        0.0957
     26 C         143.5198  143.4628  164.3773 C.ar    1  UNL1       -0.0032
     27 C         143.3133  144.8624  163.8786 C.ar    1  UNL1        0.0004
     28 C         141.9237  145.4025  163.7138 C.ar    1  UNL1        0.0398
     29 C         140.7405  144.5431  164.0477 C.ar    1  UNL1        0.1724
     30 C         140.9470  143.1436  164.5464 C.ar    1  UNL1        0.1721
     31 C         142.3366  142.6034  164.7112 C.ar    1  UNL1        0.0371
     32 O         139.7638  142.2841  164.8803 O.3     1  UNL1       -0.4684
     33 C         138.3742  142.8242  164.7155 C.3     1  UNL1        0.2526
     34 C         138.1676  144.2238  164.2168 C.3     1  UNL1        0.2526
     35 O         139.3508  145.0832  163.8829 O.3     1  UNL1       -0.4684
@<TRIPOS>BOND
     1    21    22    1
     2    22    11    1
     3    11    12   ar
     4    12    13   ar
     5    13    14   ar
     6    14    15   ar
     7    15    16   ar
     8    16    17   ar
     9    17    18   ar
    10    18     7    1
    11     7     8   am
    12     8     9    2
    13     1     8    1
    14     1     2    1
    15     2     3    1
    16     3     4    1
    17     4    23    1
    18    23    25    1
    19    25    26    1
    20    26    27   ar
    21    27    28   ar
    22    28    29   ar
    23    29    30   ar
    24    30    31   ar
    25    30    32    1
    26    32    33    1
    27    33    34    1
    28    34    35    1
    29     4     5    1
    30     5     6    1
    31    18    19   ar
    32    19    20   ar
    33    20    11   ar
    34    19    14   ar
    35     6     1    1
    36    31    26   ar
    37    35    29    1
    38     7    10    1
    39    23    24    1
