@<TRIPOS>MOLECULE
*****
 33 37 0 0 0
SMALL
GASTEIGER

@<TRIPOS>ATOM
      1 C         142.4257  138.7151  160.3552 C.ar    1  UNL1        0.1682
      2 C         140.9902  139.0891  160.1336 C.ar    1  UNL1        0.0596
      3 C         140.3119  138.7302  158.8447 C.ar    1  UNL1        0.1050
      4 N         141.0693  137.9972  157.7775 N.ar    1  UNL1       -0.2119
      5 C         142.5050  137.6231  157.9990 C.ar    1  UNL1        0.2221
      6 N         143.1832  137.9821  159.2879 N.ar    1  UNL1       -0.1944
      7 C         145.5667  141.0580  163.8944 C.3     1  UNL1        0.0537
      8 C         144.5477  140.1509  163.2709 C.ar    1  UNL1        0.0782
      9 N         144.1500  140.1338  161.8247 N.ar    1  UNL1       -0.1684
     10 N         143.1039  139.0740  161.6441 N.ar    1  UNL1       -0.2112
     11 C         142.8552  138.4360  162.9788 C.ar    1  UNL1        0.1003
     12 C         143.7475  139.1017  163.9841 C.ar    1  UNL1        0.0283
     13 C         143.8258  138.7753  165.4461 C.3     1  UNL1        0.1021
     14 N         142.7369  139.2253  166.3744 N.3     1  UNL1       -0.2647
     15 C         141.2852  139.5692  166.2187 C.3     1  UNL1        0.1034
     16 C         141.1969  139.8616  167.6873 C.3     1  UNL1        0.1423
     17 O         140.1080  140.3115  168.6156 O.3     1  UNL1       -0.3816
     18 C         142.6486  139.5176  167.8430 C.3     1  UNL1        0.1034
     19 H         139.2854  140.4307  168.1155 H       1  UNL1        0.2105
     20 N         143.2623  136.8902  156.9318 N.pl3   1  UNL1       -0.2825
     21 H         144.0064  137.3334  156.4636 H       1  UNL1        0.1551
     22 C         142.8860  135.4819  156.5777 C.ar    1  UNL1        0.0506
     23 C         141.7285  135.2232  155.6594 C.ar    1  UNL1        0.0162
     24 C         141.3523  133.8150  155.3054 C.ar    1  UNL1        0.0185
     25 C         142.1335  132.6655  155.8697 C.ar    1  UNL1        0.0606
     26 C         143.2909  132.9242  156.7880 C.ar    1  UNL1        0.0287
     27 C         143.6672  134.3324  157.1420 C.ar    1  UNL1        0.0170
     28 C         143.8709  131.5998  157.1873 C.ar    1  UNL1        0.0707
     29 CL        145.0439  131.3895  158.0981 Cl      1  UNL1       -0.0810
     30 C         143.0719  130.5225  156.5157 C.ar    1  UNL1        0.0480
     31 C         143.3056  129.0457  156.6371 C.3     1  UNL1        0.0509
     32 N         141.9980  131.1811  155.7014 N.ar    1  UNL1       -0.3278
     33 C         140.9694  130.4788  154.8656 C.3     1  UNL1        0.1301
@<TRIPOS>BOND
     1     7     8    1
     2     8     9   ar
     3     9    10   ar
     4    10     1    1
     5     1     2   ar
     6     2     3   ar
     7     3     4   ar
     8     4     5   ar
     9     5    20    1
    10    20    22    1
    11    22    23   ar
    12    23    24   ar
    13    24    25   ar
    14    25    26   ar
    15    26    27   ar
    16    26    28   ar
    17    28    29    1
    18    28    30   ar
    19    30    31    1
    20    30    32   ar
    21    32    33    1
    22     5     6   ar
    23    10    11   ar
    24    11    12   ar
    25    12    13    1
    26    13    14    1
    27    14    15    1
    28    15    16    1
    29    16    17    1
    30    16    18    1
    31    12     8   ar
    32    18    14    1
    33     6     1   ar
    34    27    22   ar
    35    32    25   ar
    36    20    21    1
    37    17    19    1
@<TRIPOS>MOLECULE
*****
 33 37 0 0 0
SMALL
GASTEIGER

@<TRIPOS>ATOM
      1 C         142.2673  140.5519  159.4162 C.ar    1  UNL1        0.1682
      2 C         142.4458  139.7934  158.1345 C.ar    1  UNL1        0.0596
      3 C         142.7322  138.3214  158.1678 C.ar    1  UNL1        0.1050
      4 N         142.8400  137.6078  159.4827 N.ar    1  UNL1       -0.2119
      5 C         142.6615  138.3663  160.7645 C.ar    1  UNL1        0.2221
      6 N         142.3752  139.8383  160.7313 N.ar    1  UNL1       -0.1944
      7 C         142.0064  145.5826  157.8338 C.3     1  UNL1        0.0537
      8 C         141.8610  144.3363  158.6556 C.ar    1  UNL1        0.0782
      9 N         142.3316  142.9655  158.2693 N.ar    1  UNL1       -0.1684
     10 N         141.9809  142.0239  159.3830 N.ar    1  UNL1       -0.2112
     11 C         141.2935  142.8129  160.4578 C.ar    1  UNL1        0.1003
     12 C         141.2194  144.2420  160.0082 C.ar    1  UNL1        0.0283
     13 C         140.6106  145.3775  160.7764 C.3     1  UNL1        0.1021
     14 N         140.1011  145.1528  162.1692 N.3     1  UNL1       -0.2647
     15 C         138.7487  144.9409  162.7825 C.3     1  UNL1        0.1034
     16 C         139.3805  144.8351  164.1389 C.3     1  UNL1        0.1423
     17 O         138.8709  144.6104  165.5317 O.3     1  UNL1       -0.3816
     18 C         140.7328  145.0470  163.5255 C.3     1  UNL1        0.1034
     19 H         137.9057  144.5163  165.5116 H       1  UNL1        0.2105
     20 N         142.7694  137.6527  162.0794 N.pl3   1  UNL1       -0.2825
     21 H         143.4767  136.9823  162.2191 H       1  UNL1        0.1551
     22 C         141.7997  137.9606  163.1817 C.ar    1  UNL1        0.0506
     23 C         140.4026  137.4176  163.1248 C.ar    1  UNL1        0.0162
     24 C         139.4329  137.7255  164.2270 C.ar    1  UNL1        0.0185
     25 C         139.8603  138.5764  165.3860 C.ar    1  UNL1        0.0606
     26 C         141.2574  139.1194  165.4429 C.ar    1  UNL1        0.0287
     27 C         142.2270  138.8115  164.3407 C.ar    1  UNL1        0.0170
     28 C         141.3913  139.9234  166.7020 C.ar    1  UNL1        0.0707
     29 CL        142.6232  140.6466  167.1595 Cl      1  UNL1       -0.0810
     30 C         140.0769  139.8774  167.4234 C.ar    1  UNL1        0.0480
     31 C         139.7638  140.5465  168.7290 C.3     1  UNL1        0.0509
     32 N         139.1307  139.0449  166.6101 N.ar    1  UNL1       -0.3278
     33 C         137.7052  138.7352  166.9595 C.3     1  UNL1        0.1301
@<TRIPOS>BOND
     1     7     8    1
     2     8     9   ar
     3     9    10   ar
     4    10     1    1
     5     1     2   ar
     6     2     3   ar
     7     3     4   ar
     8     4     5   ar
     9     5    20    1
    10    20    22    1
    11    22    23   ar
    12    23    24   ar
    13    24    25   ar
    14    25    26   ar
    15    26    27   ar
    16    26    28   ar
    17    28    29    1
    18    28    30   ar
    19    30    31    1
    20    30    32   ar
    21    32    33    1
    22     5     6   ar
    23    10    11   ar
    24    11    12   ar
    25    12    13    1
    26    13    14    1
    27    14    15    1
    28    15    16    1
    29    16    17    1
    30    16    18    1
    31    12     8   ar
    32    18    14    1
    33     6     1   ar
    34    27    22   ar
    35    32    25   ar
    36    20    21    1
    37    17    19    1
@<TRIPOS>MOLECULE
*****
 33 37 0 0 0
SMALL
GASTEIGER

@<TRIPOS>ATOM
      1 C         138.3194  140.0576  159.9060 C.ar    1  UNL1        0.1682
      2 C         139.1664  138.8211  159.8457 C.ar    1  UNL1        0.0596
      3 C         139.4328  138.0329  161.0939 C.ar    1  UNL1        0.1050
      4 N         138.8523  138.4812  162.4022 N.ar    1  UNL1       -0.2119
      5 C         138.0052  139.7177  162.4626 C.ar    1  UNL1        0.2221
      6 N         137.7388  140.5059  161.2145 N.ar    1  UNL1       -0.1944
      7 C         136.1359  141.7522  155.4070 C.3     1  UNL1        0.0537
      8 C         137.0493  141.6247  156.5899 C.ar    1  UNL1        0.0782
      9 N         136.9358  140.6068  157.6859 N.ar    1  UNL1       -0.1684
     10 N         138.0529  140.8458  158.6579 N.ar    1  UNL1       -0.2112
     11 C         138.8570  142.0113  158.1627 C.ar    1  UNL1        0.1003
     12 C         138.2366  142.4927  156.8846 C.ar    1  UNL1        0.0283
     13 C         138.7190  143.6406  156.0481 C.3     1  UNL1        0.1021
     14 N         139.8731  144.4766  156.5160 N.3     1  UNL1       -0.2647
     15 C         141.3622  144.3006  156.5577 C.3     1  UNL1        0.1034
     16 C         141.5053  145.6590  157.1777 C.3     1  UNL1        0.1423
     17 O         142.6595  146.4951  157.6456 O.3     1  UNL1       -0.3816
     18 C         140.0163  145.8350  157.1359 C.3     1  UNL1        0.1034
     19 H         143.4885  146.0138  157.4971 H       1  UNL1        0.2105
     20 N         137.4247  140.1660  163.7710 N.pl3   1  UNL1       -0.2825
     21 H         136.4783  140.4319  163.8243 H       1  UNL1        0.1551
     22 C         138.2861  140.2092  164.9983 C.ar    1  UNL1        0.0506
     23 C         137.9643  139.3321  166.1717 C.ar    1  UNL1        0.0162
     24 C         138.8257  139.3754  167.3989 C.ar    1  UNL1        0.0185
     25 C         140.0090  140.2957  167.4526 C.ar    1  UNL1        0.0606
     26 C         140.3308  141.1728  166.2792 C.ar    1  UNL1        0.0287
     27 C         139.4694  141.1296  165.0520 C.ar    1  UNL1        0.0170
     28 C         141.5529  141.9730  166.6199 C.ar    1  UNL1        0.0707
     29 CL        142.2238  142.9791  165.7324 Cl      1  UNL1       -0.0810
     30 C         141.9865  141.5903  168.0040 C.ar    1  UNL1        0.0480
     31 C         143.1670  142.1467  168.7436 C.3     1  UNL1        0.0509
     32 N         141.0322  140.5537  168.5187 N.ar    1  UNL1       -0.3278
     33 C         141.0909  139.8914  169.8633 C.3     1  UNL1        0.1301
@<TRIPOS>BOND
     1     7     8    1
     2     8     9   ar
     3     9    10   ar
     4    10     1    1
     5     1     2   ar
     6     2     3   ar
     7     3     4   ar
     8     4     5   ar
     9     5    20    1
    10    20    22    1
    11    22    23   ar
    12    23    24   ar
    13    24    25   ar
    14    25    26   ar
    15    26    27   ar
    16    26    28   ar
    17    28    29    1
    18    28    30   ar
    19    30    31    1
    20    30    32   ar
    21    32    33    1
    22     5     6   ar
    23    10    11   ar
    24    11    12   ar
    25    12    13    1
    26    13    14    1
    27    14    15    1
    28    15    16    1
    29    16    17    1
    30    16    18    1
    31    12     8   ar
    32    18    14    1
    33     6     1   ar
    34    27    22   ar
    35    32    25   ar
    36    20    21    1
    37    17    19    1
@<TRIPOS>MOLECULE
*****
 33 37 0 0 0
SMALL
GASTEIGER

@<TRIPOS>ATOM
      1 C         142.2454  138.8829  159.9877 C.ar    1  UNL1        0.1682
      2 C         140.7903  139.1171  159.7089 C.ar    1  UNL1        0.0596
      3 C         140.1654  138.5578  158.4652 C.ar    1  UNL1        0.1050
      4 N         140.9956  137.7642  157.5004 N.ar    1  UNL1       -0.2119
      5 C         142.4508  137.5299  157.7792 C.ar    1  UNL1        0.2221
      6 N         143.0756  138.0893  159.0228 N.ar    1  UNL1       -0.1944
      7 C         145.0387  139.3125  164.4478 C.3     1  UNL1        0.0537
      8 C         144.1543  139.6397  163.2815 C.ar    1  UNL1        0.0782
      9 N         143.7592  138.6978  162.1829 N.ar    1  UNL1       -0.1684
     10 N         142.8702  139.4423  161.2313 N.ar    1  UNL1       -0.2112
     11 C         142.7159  140.8444  161.7417 C.ar    1  UNL1        0.1003
     12 C         143.5095  140.9663  163.0088 C.ar    1  UNL1        0.0283
     13 C         143.6360  142.1986  163.8546 C.3     1  UNL1        0.1021
     14 N         142.7988  143.4057  163.5513 N.3     1  UNL1       -0.2647
     15 C         143.0558  144.7453  162.9271 C.3     1  UNL1        0.1034
     16 C         141.6147  145.1128  163.1224 C.3     1  UNL1        0.1423
     17 O         140.7775  146.3199  162.8191 O.3     1  UNL1       -0.3816
     18 C         141.3577  143.7733  163.7466 C.3     1  UNL1        0.1034
     19 H         141.3291  146.9991  162.4005 H       1  UNL1        0.2105
     20 N         143.2810  136.7364  156.8144 N.pl3   1  UNL1       -0.2825
     21 H         144.0734  137.1439  156.3958 H       1  UNL1        0.1551
     22 C         142.9038  135.3218  156.4872 C.ar    1  UNL1        0.0506
     23 C         141.7565  135.0466  155.5611 C.ar    1  UNL1        0.0162
     24 C         141.3794  133.6321  155.2340 C.ar    1  UNL1        0.0185
     25 C         142.1496  132.4929  155.8331 C.ar    1  UNL1        0.0606
     26 C         143.2969  132.7681  156.7593 C.ar    1  UNL1        0.0287
     27 C         143.6740  134.1826  157.0863 C.ar    1  UNL1        0.0170
     28 C         143.8673  131.4510  157.1948 C.ar    1  UNL1        0.0707
     29 CL        145.0286  131.2572  158.1242 Cl      1  UNL1       -0.0810
     30 C         143.0725  130.3616  156.5378 C.ar    1  UNL1        0.0480
     31 C         143.2995  128.8872  156.6949 C.3     1  UNL1        0.0509
     32 N         142.0109  131.0055  155.6962 N.ar    1  UNL1       -0.3278
     33 C         140.9898  130.2882  154.8639 C.3     1  UNL1        0.1301
@<TRIPOS>BOND
     1     7     8    1
     2     8     9   ar
     3     9    10   ar
     4    10     1    1
     5     1     2   ar
     6     2     3   ar
     7     3     4   ar
     8     4     5   ar
     9     5    20    1
    10    20    22    1
    11    22    23   ar
    12    23    24   ar
    13    24    25   ar
    14    25    26   ar
    15    26    27   ar
    16    26    28   ar
    17    28    29    1
    18    28    30   ar
    19    30    31    1
    20    30    32   ar
    21    32    33    1
    22     5     6   ar
    23    10    11   ar
    24    11    12   ar
    25    12    13    1
    26    13    14    1
    27    14    15    1
    28    15    16    1
    29    16    17    1
    30    16    18    1
    31    12     8   ar
    32    18    14    1
    33     6     1   ar
    34    27    22   ar
    35    32    25   ar
    36    20    21    1
    37    17    19    1
@<TRIPOS>MOLECULE
*****
 33 37 0 0 0
SMALL
GASTEIGER

@<TRIPOS>ATOM
      1 C         143.0290  138.8336  158.4798 C.ar    1  UNL1        0.1682
      2 C         143.2303  140.2849  158.1590 C.ar    1  UNL1        0.0596
      3 C         143.8155  141.2063  159.1879 C.ar    1  UNL1        0.1050
      4 N         144.1994  140.6763  160.5376 N.ar    1  UNL1       -0.2119
      5 C         143.9982  139.2249  160.8584 C.ar    1  UNL1        0.2221
      6 N         143.4130  138.3035  159.8295 N.ar    1  UNL1       -0.1944
      7 C         139.7912  136.7483  154.8675 C.3     1  UNL1        0.0537
      8 C         140.9556  136.9537  155.7905 C.ar    1  UNL1        0.0782
      9 N         141.1489  138.1139  156.7213 N.ar    1  UNL1       -0.1684
     10 N         142.4439  137.9122  157.4509 N.ar    1  UNL1       -0.2112
     11 C         143.0510  136.6272  156.9710 C.ar    1  UNL1        0.1003
     12 C         142.1311  136.0348  155.9447 C.ar    1  UNL1        0.0283
     13 C         142.3487  134.7493  155.2031 C.3     1  UNL1        0.1021
     14 N         142.6177  133.4828  155.9603 N.3     1  UNL1       -0.2647
     15 C         143.3805  133.1317  157.2033 C.3     1  UNL1        0.1034
     16 C         142.9980  131.6915  157.0313 C.3     1  UNL1        0.1423
     17 O         143.2670  130.4250  157.7886 O.3     1  UNL1       -0.3816
     18 C         142.2352  132.0426  155.7883 C.3     1  UNL1        0.1034
     19 H         143.8187  130.6215  158.5618 H       1  UNL1        0.2105
     20 N         144.3822  138.6949  162.2081 N.pl3   1  UNL1       -0.2825
     21 H         145.2269  138.2022  162.3213 H       1  UNL1        0.1551
     22 C         143.4790  138.9156  163.3852 C.ar    1  UNL1        0.0506
     23 C         144.0132  139.5600  164.6299 C.ar    1  UNL1        0.0162
     24 C         143.1100  139.7807  165.8070 C.ar    1  UNL1        0.0185
     25 C         141.6727  139.3570  165.7394 C.ar    1  UNL1        0.0606
     26 C         141.1385  138.7126  164.4947 C.ar    1  UNL1        0.0287
     27 C         142.0417  138.4919  163.3176 C.ar    1  UNL1        0.0170
     28 C         139.6884  138.4020  164.7193 C.ar    1  UNL1        0.0707
     29 CL        138.7628  137.7528  163.7335 Cl      1  UNL1       -0.0810
     30 C         139.3262  138.8544  166.1029 C.ar    1  UNL1        0.0480
     31 C         137.9749  138.7372  166.7435 C.3     1  UNL1        0.0509
     32 N         140.5526  139.4447  166.7334 N.ar    1  UNL1       -0.3278
     33 C         140.6431  140.0214  168.1151 C.3     1  UNL1        0.1301
@<TRIPOS>BOND
     1     7     8    1
     2     8     9   ar
     3     9    10   ar
     4    10     1    1
     5     1     2   ar
     6     2     3   ar
     7     3     4   ar
     8     4     5   ar
     9     5    20    1
    10    20    22    1
    11    22    23   ar
    12    23    24   ar
    13    24    25   ar
    14    25    26   ar
    15    26    27   ar
    16    26    28   ar
    17    28    29    1
    18    28    30   ar
    19    30    31    1
    20    30    32   ar
    21    32    33    1
    22     5     6   ar
    23    10    11   ar
    24    11    12   ar
    25    12    13    1
    26    13    14    1
    27    14    15    1
    28    15    16    1
    29    16    17    1
    30    16    18    1
    31    12     8   ar
    32    18    14    1
    33     6     1   ar
    34    27    22   ar
    35    32    25   ar
    36    20    21    1
    37    17    19    1
@<TRIPOS>MOLECULE
*****
 33 37 0 0 0
SMALL
GASTEIGER

@<TRIPOS>ATOM
      1 C         142.4335  140.6209  159.0233 C.ar    1  UNL1        0.1682
      2 C         142.3451  139.8365  157.7478 C.ar    1  UNL1        0.0596
      3 C         142.6386  138.3655  157.7500 C.ar    1  UNL1        0.1050
      4 N         143.0205  137.6789  159.0277 N.ar    1  UNL1       -0.2119
      5 C         143.1090  138.4633  160.3033 C.ar    1  UNL1        0.2221
      6 N         142.8155  139.9343  160.3011 N.ar    1  UNL1       -0.1944
      7 C         142.1415  145.6812  157.5437 C.3     1  UNL1        0.0537
      8 C         142.0058  144.4179  158.3409 C.ar    1  UNL1        0.0782
      9 N         142.4811  143.0574  157.9249 N.ar    1  UNL1       -0.1684
     10 N         142.1401  142.0919  159.0210 N.ar    1  UNL1       -0.2112
     11 C         141.4539  142.8558  160.1146 C.ar    1  UNL1        0.1003
     12 C         141.3710  144.2933  159.6942 C.ar    1  UNL1        0.0283
     13 C         140.7604  145.4101  160.4879 C.3     1  UNL1        0.1021
     14 N         140.2939  145.1645  161.8922 N.3     1  UNL1       -0.2647
     15 C         138.9754  144.8421  162.5307 C.3     1  UNL1        0.1034
     16 C         139.6342  144.8171  163.8781 C.3     1  UNL1        0.1423
     17 O         139.1676  144.5714  165.2824 O.3     1  UNL1       -0.3816
     18 C         140.9526  145.1394  163.2395 C.3     1  UNL1        0.1034
     19 H         138.2147  144.3903  165.2795 H       1  UNL1        0.2105
     20 N         143.4910  137.7767  161.5810 N.pl3   1  UNL1       -0.2825
     21 H         143.9556  136.9091  161.5538 H       1  UNL1        0.1551
     22 C         143.1650  138.4118  162.9003 C.ar    1  UNL1        0.0506
     23 C         144.2093  139.2037  163.6298 C.ar    1  UNL1        0.0162
     24 C         143.8834  139.8388  164.9490 C.ar    1  UNL1        0.0185
     25 C         142.5131  139.6821  165.5387 C.ar    1  UNL1        0.0606
     26 C         141.4688  138.8902  164.8092 C.ar    1  UNL1        0.0287
     27 C         141.7947  138.2551  163.4900 C.ar    1  UNL1        0.0170
     28 C         140.2147  138.9082  165.6319 C.ar    1  UNL1        0.0707
     29 CL        138.9188  138.2404  165.2786 Cl      1  UNL1       -0.0810
     30 C         140.4839  139.7112  166.8699 C.ar    1  UNL1        0.0480
     31 C         139.5045  139.9874  167.9721 C.3     1  UNL1        0.0509
     32 N         141.9044  140.1895  166.8124 N.ar    1  UNL1       -0.3278
     33 C         142.5950  141.0280  167.8467 C.3     1  UNL1        0.1301
@<TRIPOS>BOND
     1     7     8    1
     2     8     9   ar
     3     9    10   ar
     4    10     1    1
     5     1     2   ar
     6     2     3   ar
     7     3     4   ar
     8     4     5   ar
     9     5    20    1
    10    20    22    1
    11    22    23   ar
    12    23    24   ar
    13    24    25   ar
    14    25    26   ar
    15    26    27   ar
    16    26    28   ar
    17    28    29    1
    18    28    30   ar
    19    30    31    1
    20    30    32   ar
    21    32    33    1
    22     5     6   ar
    23    10    11   ar
    24    11    12   ar
    25    12    13    1
    26    13    14    1
    27    14    15    1
    28    15    16    1
    29    16    17    1
    30    16    18    1
    31    12     8   ar
    32    18    14    1
    33     6     1   ar
    34    27    22   ar
    35    32    25   ar
    36    20    21    1
    37    17    19    1
@<TRIPOS>MOLECULE
*****
 33 37 0 0 0
SMALL
GASTEIGER

@<TRIPOS>ATOM
      1 C         142.4022  135.9407  156.7237 C.ar    1  UNL1        0.1682
      2 C         141.3932  136.5100  155.7709 C.ar    1  UNL1        0.0596
      3 C         141.0454  137.9679  155.8296 C.ar    1  UNL1        0.1050
      4 N         141.7066  138.8566  156.8410 N.ar    1  UNL1       -0.2119
      5 C         142.7157  138.2873  157.7938 C.ar    1  UNL1        0.2221
      6 N         143.0635  136.8294  157.7352 N.ar    1  UNL1       -0.1944
      7 C         144.6311  131.2646  157.7467 C.3     1  UNL1        0.0537
      8 C         143.7746  132.3333  157.1352 C.ar    1  UNL1        0.0782
      9 N         143.7462  133.7781  157.5375 N.ar    1  UNL1       -0.1684
     10 N         142.7500  134.4827  156.6650 N.ar    1  UNL1       -0.2112
     11 C         142.1628  133.4734  155.7234 C.ar    1  UNL1        0.1003
     12 C         142.7960  132.1450  156.0141 C.ar    1  UNL1        0.0283
     13 C         142.5022  130.8548  155.3077 C.3     1  UNL1        0.1021
     14 N         143.5462  130.2225  154.4357 N.3     1  UNL1       -0.2647
     15 C         143.8667  130.2556  152.9708 C.3     1  UNL1        0.1034
     16 C         145.0226  129.3282  153.2027 C.3     1  UNL1        0.1423
     17 O         146.0666  128.6959  152.3308 O.3     1  UNL1       -0.3816
     18 C         144.7021  129.2951  154.6677 C.3     1  UNL1        0.1034
     19 H         145.9315  128.9737  151.4113 H       1  UNL1        0.2105
     20 N         143.3769  139.1760  158.8053 N.pl3   1  UNL1       -0.2825
     21 H         144.0299  139.8526  158.5139 H       1  UNL1        0.1551
     22 C         143.0431  139.0337  160.2608 C.ar    1  UNL1        0.0506
     23 C         144.1110  139.2225  161.2971 C.ar    1  UNL1        0.0162
     24 C         143.7772  139.0802  162.7525 C.ar    1  UNL1        0.0185
     25 C         142.3755  138.7491  163.1716 C.ar    1  UNL1        0.0606
     26 C         141.3076  138.5603  162.1353 C.ar    1  UNL1        0.0287
     27 C         141.6414  138.7026  160.6799 C.ar    1  UNL1        0.0170
     28 C         140.0247  138.2420  162.8444 C.ar    1  UNL1        0.0707
     29 CL        138.6995  137.9779  162.1933 Cl      1  UNL1       -0.0810
     30 C         140.2997  138.2341  164.3190 C.ar    1  UNL1        0.0480
     31 C         139.2977  137.9607  165.4013 C.3     1  UNL1        0.0509
     32 N         141.7526  138.5475  164.5213 N.ar    1  UNL1       -0.3278
     33 C         142.4586  138.6427  165.8413 C.3     1  UNL1        0.1301
@<TRIPOS>BOND
     1     7     8    1
     2     8     9   ar
     3     9    10   ar
     4    10     1    1
     5     1     2   ar
     6     2     3   ar
     7     3     4   ar
     8     4     5   ar
     9     5    20    1
    10    20    22    1
    11    22    23   ar
    12    23    24   ar
    13    24    25   ar
    14    25    26   ar
    15    26    27   ar
    16    26    28   ar
    17    28    29    1
    18    28    30   ar
    19    30    31    1
    20    30    32   ar
    21    32    33    1
    22     5     6   ar
    23    10    11   ar
    24    11    12   ar
    25    12    13    1
    26    13    14    1
    27    14    15    1
    28    15    16    1
    29    16    17    1
    30    16    18    1
    31    12     8   ar
    32    18    14    1
    33     6     1   ar
    34    27    22   ar
    35    32    25   ar
    36    20    21    1
    37    17    19    1
@<TRIPOS>MOLECULE
*****
 33 37 0 0 0
SMALL
GASTEIGER

@<TRIPOS>ATOM
      1 C         141.8233  138.3992  158.3261 C.ar    1  UNL1        0.1682
      2 C         141.6499  139.5839  157.4226 C.ar    1  UNL1        0.0596
      3 C         142.3172  139.6067  156.0794 C.ar    1  UNL1        0.1050
      4 N         143.1577  138.4448  155.6396 N.ar    1  UNL1       -0.2119
      5 C         143.3310  137.2600  156.5431 C.ar    1  UNL1        0.2221
      6 N         142.6638  137.2372  157.8864 N.ar    1  UNL1       -0.1944
      7 C         140.8000  137.3988  163.4087 C.3     1  UNL1        0.0537
      8 C         140.6857  137.9165  162.0056 C.ar    1  UNL1        0.0782
      9 N         141.6642  137.6757  160.8944 N.ar    1  UNL1       -0.1684
     10 N         141.1560  138.3764  159.6693 N.ar    1  UNL1       -0.2112
     11 C         139.8635  139.0503  160.0233 C.ar    1  UNL1        0.1003
     12 C         139.5728  138.7660  161.4672 C.ar    1  UNL1        0.0283
     13 C         138.3789  139.2469  162.2375 C.3     1  UNL1        0.1021
     14 N         138.1060  140.7171  162.3572 N.3     1  UNL1       -0.2647
     15 C         137.7060  141.6340  163.4749 C.3     1  UNL1        0.1034
     16 C         137.7201  142.7961  162.5266 C.3     1  UNL1        0.1423
     17 O         137.4472  144.2662  162.6463 O.3     1  UNL1       -0.3816
     18 C         138.1202  141.8792  161.4089 C.3     1  UNL1        0.1034
     19 H         137.2098  144.4774  163.5628 H       1  UNL1        0.2105
     20 N         144.1715  136.0981  156.1034 N.pl3   1  UNL1       -0.2825
     21 H         145.1322  136.2237  155.9286 H       1  UNL1        0.1551
     22 C         143.5484  134.7447  155.9300 C.ar    1  UNL1        0.0506
     23 C         142.3934  134.5657  154.9898 C.ar    1  UNL1        0.0162
     24 C         141.7703  133.2123  154.8164 C.ar    1  UNL1        0.0185
     25 C         142.3022  132.0379  155.5832 C.ar    1  UNL1        0.0606
     26 C         143.4571  132.2169  156.5234 C.ar    1  UNL1        0.0287
     27 C         144.0802  133.5703  156.6968 C.ar    1  UNL1        0.0170
     28 C         143.7639  130.8843  157.1397 C.ar    1  UNL1        0.0707
     29 CL        144.8461  130.6036  158.1398 Cl      1  UNL1       -0.0810
     30 C         142.7985  129.8816  156.5805 C.ar    1  UNL1        0.0480
     31 C         142.7458  128.4222  156.9231 C.3     1  UNL1        0.0509
     32 N         141.8951  130.5946  155.6185 N.ar    1  UNL1       -0.3278
     33 C         140.7804  129.9734  154.8302 C.3     1  UNL1        0.1301
@<TRIPOS>BOND
     1     7     8    1
     2     8     9   ar
     3     9    10   ar
     4    10     1    1
     5     1     2   ar
     6     2     3   ar
     7     3     4   ar
     8     4     5   ar
     9     5    20    1
    10    20    22    1
    11    22    23   ar
    12    23    24   ar
    13    24    25   ar
    14    25    26   ar
    15    26    27   ar
    16    26    28   ar
    17    28    29    1
    18    28    30   ar
    19    30    31    1
    20    30    32   ar
    21    32    33    1
    22     5     6   ar
    23    10    11   ar
    24    11    12   ar
    25    12    13    1
    26    13    14    1
    27    14    15    1
    28    15    16    1
    29    16    17    1
    30    16    18    1
    31    12     8   ar
    32    18    14    1
    33     6     1   ar
    34    27    22   ar
    35    32    25   ar
    36    20    21    1
    37    17    19    1
@<TRIPOS>MOLECULE
*****
 33 37 0 0 0
SMALL
GASTEIGER

@<TRIPOS>ATOM
      1 C         140.8143  138.6761  159.2067 C.ar    1  UNL1        0.1682
      2 C         139.6431  139.2830  158.4925 C.ar    1  UNL1        0.0596
      3 C         139.4960  139.1082  157.0100 C.ar    1  UNL1        0.1050
      4 N         140.5200  138.3266  156.2417 N.ar    1  UNL1       -0.2119
      5 C         141.6913  137.7197  156.9558 C.ar    1  UNL1        0.2221
      6 N         141.8384  137.8945  158.4383 N.ar    1  UNL1       -0.1944
      7 C         142.7012  138.4150  164.1313 C.3     1  UNL1        0.0537
      8 C         141.8288  138.7309  162.9528 C.ar    1  UNL1        0.0782
      9 N         142.0850  138.3242  161.5319 N.ar    1  UNL1       -0.1684
     10 N         140.9614  138.8509  160.6892 N.ar    1  UNL1       -0.2112
     11 C         140.0108  139.5832  161.5893 C.ar    1  UNL1        0.1003
     12 C         140.5469  139.5090  162.9883 C.ar    1  UNL1        0.0283
     13 C         139.9124  140.1078  164.2085 C.3     1  UNL1        0.1021
     14 N         139.0724  139.2548  165.1122 N.3     1  UNL1       -0.2647
     15 C         138.8871  137.7792  165.3079 C.3     1  UNL1        0.1034
     16 C         137.8843  138.0486  166.3904 C.3     1  UNL1        0.1423
     17 O         137.0442  137.1956  167.2941 O.3     1  UNL1       -0.3816
     18 C         138.0695  139.5242  166.1947 C.3     1  UNL1        0.1034
     19 H         137.2157  136.2595  167.1066 H       1  UNL1        0.2105
     20 N         142.7153  136.9381  156.1875 N.pl3   1  UNL1       -0.2825
     21 H         143.4473  137.4069  155.7252 H       1  UNL1        0.1551
     22 C         142.6241  135.4422  156.1235 C.ar    1  UNL1        0.0506
     23 C         141.5085  134.7907  155.3613 C.ar    1  UNL1        0.0162
     24 C         141.4174  133.2949  155.2973 C.ar    1  UNL1        0.0185
     25 C         142.4419  132.4505  155.9955 C.ar    1  UNL1        0.0606
     26 C         143.5575  133.1020  156.7577 C.ar    1  UNL1        0.0287
     27 C         143.6486  134.5978  156.8217 C.ar    1  UNL1        0.0170
     28 C         144.4147  132.0183  157.3414 C.ar    1  UNL1        0.0707
     29 CL        145.6422  132.2204  158.1794 Cl      1  UNL1       -0.0810
     30 C         143.8289  130.6970  156.9400 C.ar    1  UNL1        0.0480
     31 C         144.3678  129.3459  157.3062 C.3     1  UNL1        0.0509
     32 N         142.6096  130.9641  156.1082 N.ar    1  UNL1       -0.3278
     33 C         141.7151  129.9271  155.4964 C.3     1  UNL1        0.1301
@<TRIPOS>BOND
     1     7     8    1
     2     8     9   ar
     3     9    10   ar
     4    10     1    1
     5     1     2   ar
     6     2     3   ar
     7     3     4   ar
     8     4     5   ar
     9     5    20    1
    10    20    22    1
    11    22    23   ar
    12    23    24   ar
    13    24    25   ar
    14    25    26   ar
    15    26    27   ar
    16    26    28   ar
    17    28    29    1
    18    28    30   ar
    19    30    31    1
    20    30    32   ar
    21    32    33    1
    22     5     6   ar
    23    10    11   ar
    24    11    12   ar
    25    12    13    1
    26    13    14    1
    27    14    15    1
    28    15    16    1
    29    16    17    1
    30    16    18    1
    31    12     8   ar
    32    18    14    1
    33     6     1   ar
    34    27    22   ar
    35    32    25   ar
    36    20    21    1
    37    17    19    1
