@<TRIPOS>MOLECULE
*****
 33 37 0 0 0
SMALL
GASTEIGER

@<TRIPOS>ATOM
      1 C         139.8575  144.5993  157.6640 C.3     1  UNL1        0.0501
      2 C         139.5066  143.6129  158.7382 C.2     1  UNL1        0.0727
      3 N         138.4363  142.5650  158.6575 N.2     1  UNL1       -0.1562
      4 N         138.4326  141.8056  159.9510 N.2     1  UNL1       -0.1521
      5 C         139.5007  142.3840  160.8312 C.2     1  UNL1        0.0954
      6 C         140.1644  143.5010  160.0816 C.3     1  UNL1        0.1563
      7 C         141.2820  144.2719  160.7192 C.2     1  UNL1        0.2400
      8 O         141.9458  145.3889  159.9696 O.2     1  UNL1       -0.2737
      9 N         141.7359  143.9259  162.1064 N.am    1  UNL1       -0.2580
     10 C         141.0722  142.8090  162.8559 C.ar    1  UNL1        0.0547
     11 C         141.5261  142.4629  164.2432 C.ar    1  UNL1        0.0104
     12 C         140.8623  141.3460  164.9927 C.ar    1  UNL1       -0.0252
     13 C         139.7447  140.5751  164.3551 C.ar    1  UNL1       -0.0263
     14 C         139.2908  140.9211  162.9680 C.ar    1  UNL1       -0.0021
     15 C         139.9546  142.0380  162.2184 C.ar    1  UNL1        0.0295
     16 C         141.3162  141.0000  166.3799 C.3     1  UNL1        0.0221
     17 C         142.2046  139.8124  166.6040 C.3     1  UNL1        0.0043
     18 C         142.6585  139.4664  167.9912 C.3     1  UNL1        0.0003
     19 C         142.2238  140.3080  169.1543 C.3     1  UNL1        0.0000
     20 C         141.3354  141.4956  168.9302 C.3     1  UNL1        0.0003
     21 C         140.8816  141.8416  167.5430 C.3     1  UNL1        0.0043
     22 C         139.0809  139.4581  165.1047 C.3     1  UNL1        0.0220
     23 C         139.2781  138.0379  164.6640 C.3     1  UNL1        0.0043
     24 C         138.6143  136.9211  165.4135 C.3     1  UNL1        0.0003
     25 C         137.7532  137.2243  166.6038 C.3     1  UNL1        0.0000
     26 C         137.5560  138.6445  167.0445 C.3     1  UNL1        0.0003
     27 C         138.2199  139.7614  166.2949 C.3     1  UNL1        0.0043
     28 C         142.8536  144.6969  162.7440 C.3     1  UNL1        0.0996
     29 C         144.2494  144.1480  162.7254 C.3     1  UNL1        0.0387
     30 C         144.5846  142.9808  161.8449 C.3     1  UNL1        0.0669
     31 N         145.7317  142.0806  162.1972 N.3     1  UNL1       -0.3211
     32 H         146.6059  142.6018  162.1301 H       1  UNL1        0.1189
     33 H         145.7556  141.2917  161.5512 H       1  UNL1        0.1189
@<TRIPOS>BOND
     1     1     2    1
     2     2     3    2
     3     3     4    1
     4     4     5    2
     5     5     6    1
     6     6     7    1
     7     7     8    2
     8     7     9   am
     9     9    28    1
    10    28    29    1
    11    29    30    1
    12    30    31    1
    13     9    10    1
    14    10    11   ar
    15    11    12   ar
    16    12    16    1
    17    16    17    1
    18    17    18    1
    19    18    19    1
    20    19    20    1
    21    20    21    1
    22    12    13   ar
    23    13    22    1
    24    22    23    1
    25    23    24    1
    26    24    25    1
    27    25    26    1
    28    26    27    1
    29    13    14   ar
    30    14    15   ar
    31     6     2    1
    32    15    10   ar
    33    15     5    1
    34    21    16    1
    35    27    22    1
    36    31    32    1
    37    31    33    1
@<TRIPOS>MOLECULE
*****
 33 37 0 0 0
SMALL
GASTEIGER

@<TRIPOS>ATOM
      1 C         137.6208  142.4698  155.5952 C.3     1  UNL1        0.0501
      2 C         137.6294  141.7572  156.9151 C.2     1  UNL1        0.0727
      3 N         136.8352  140.5326  157.2612 N.2     1  UNL1       -0.1562
      4 N         137.1485  140.1626  158.6806 N.2     1  UNL1       -0.1521
      5 C         138.1364  141.1585  159.2119 C.2     1  UNL1        0.0954
      6 C         138.4336  142.1440  158.1208 C.3     1  UNL1        0.1563
      7 C         139.3981  143.2663  158.3660 C.2     1  UNL1        0.2400
      8 O         139.6953  144.2518  157.2749 O.2     1  UNL1       -0.2737
      9 N         140.0654  143.4031  159.7025 N.am    1  UNL1       -0.2580
     10 C         139.7683  142.4177  160.7935 C.ar    1  UNL1        0.0547
     11 C         140.4357  142.5544  162.1300 C.ar    1  UNL1        0.0104
     12 C         140.1385  141.5690  163.2210 C.ar    1  UNL1       -0.0252
     13 C         139.1740  140.4467  162.9758 C.ar    1  UNL1       -0.0263
     14 C         138.5066  140.3099  161.6394 C.ar    1  UNL1       -0.0021
     15 C         138.8038  141.2954  160.5483 C.ar    1  UNL1        0.0295
     16 C         140.8059  141.7058  164.5575 C.3     1  UNL1        0.0221
     17 C         142.0518  140.9263  164.8569 C.3     1  UNL1        0.0043
     18 C         142.7192  141.0631  166.1934 C.3     1  UNL1        0.0003
     19 C         142.1405  141.9795  167.2303 C.3     1  UNL1        0.0000
     20 C         140.8944  142.7590  166.9308 C.3     1  UNL1        0.0003
     21 C         140.2271  142.6222  165.5944 C.3     1  UNL1        0.0043
     22 C         138.8768  139.4612  164.0669 C.3     1  UNL1        0.0220
     23 C         139.2979  138.0291  163.9193 C.3     1  UNL1        0.0043
     24 C         139.0007  137.0437  165.0104 C.3     1  UNL1        0.0003
     25 C         138.2823  137.4903  166.2492 C.3     1  UNL1        0.0000
     26 C         137.8612  138.9224  166.3968 C.3     1  UNL1        0.0003
     27 C         138.1584  139.9078  165.3056 C.3     1  UNL1        0.0043
     28 C         141.0300  144.5254  159.9477 C.3     1  UNL1        0.0996
     29 C         140.5193  145.8840  160.3265 C.3     1  UNL1        0.0387
     30 C         139.8547  146.0918  161.6550 C.3     1  UNL1        0.0669
     31 N         140.6823  146.1691  162.9037 N.3     1  UNL1       -0.3211
     32 H         141.1259  145.2666  163.0740 H       1  UNL1        0.1189
     33 H         140.0836  146.4083  163.6941 H       1  UNL1        0.1189
@<TRIPOS>BOND
     1     1     2    1
     2     2     3    2
     3     3     4    1
     4     4     5    2
     5     5     6    1
     6     6     7    1
     7     7     8    2
     8     7     9   am
     9     9    28    1
    10    28    29    1
    11    29    30    1
    12    30    31    1
    13     9    10    1
    14    10    11   ar
    15    11    12   ar
    16    12    16    1
    17    16    17    1
    18    17    18    1
    19    18    19    1
    20    19    20    1
    21    20    21    1
    22    12    13   ar
    23    13    22    1
    24    22    23    1
    25    23    24    1
    26    24    25    1
    27    25    26    1
    28    26    27    1
    29    13    14   ar
    30    14    15   ar
    31     6     2    1
    32    15    10   ar
    33    15     5    1
    34    21    16    1
    35    27    22    1
    36    31    32    1
    37    31    33    1
@<TRIPOS>MOLECULE
*****
 33 37 0 0 0
SMALL
GASTEIGER

@<TRIPOS>ATOM
      1 C         136.2884  141.7590  153.9748 C.3     1  UNL1        0.0501
      2 C         136.6726  141.4959  155.4007 C.2     1  UNL1        0.0727
      3 N         136.1121  140.4179  156.2803 N.2     1  UNL1       -0.1562
      4 N         136.7778  140.5203  157.6206 N.2     1  UNL1       -0.1521
      5 C         137.7497  141.6617  157.5694 C.2     1  UNL1        0.0954
      6 C         137.6847  142.2646  156.1974 C.3     1  UNL1        0.1563
      7 C         138.5555  143.4357  155.8508 C.2     1  UNL1        0.2400
      8 O         138.4906  144.0387  154.4788 O.2     1  UNL1       -0.2737
      9 N         139.4914  144.0039  156.8762 N.am    1  UNL1       -0.2580
     10 C         139.5564  143.4010  158.2481 C.ar    1  UNL1        0.0547
     11 C         140.4923  143.9692  159.2735 C.ar    1  UNL1        0.0104
     12 C         140.5573  143.3663  160.6454 C.ar    1  UNL1       -0.0252
     13 C         139.6865  142.1952  160.9920 C.ar    1  UNL1       -0.0263
     14 C         138.7506  141.6270  159.9667 C.ar    1  UNL1       -0.0021
     15 C         138.6856  142.2299  158.5947 C.ar    1  UNL1        0.0295
     16 C         141.4931  143.9345  161.6708 C.3     1  UNL1        0.0221
     17 C         140.9754  144.8717  162.7212 C.3     1  UNL1        0.0043
     18 C         141.9113  145.4399  163.7466 C.3     1  UNL1        0.0003
     19 C         143.3649  145.0708  163.7215 C.3     1  UNL1        0.0000
     20 C         143.8827  144.1335  162.6710 C.3     1  UNL1        0.0003
     21 C         142.9468  143.5654  161.6457 C.3     1  UNL1        0.0043
     22 C         139.7514  141.5922  162.3640 C.3     1  UNL1        0.0220
     23 C         138.7484  141.9894  163.4061 C.3     1  UNL1        0.0043
     24 C         138.8134  141.3865  164.7780 C.3     1  UNL1        0.0003
     25 C         139.8815  140.3862  165.1078 C.3     1  UNL1        0.0000
     26 C         140.8846  139.9890  164.0657 C.3     1  UNL1        0.0003
     27 C         140.8195  140.5920  162.6937 C.3     1  UNL1        0.0043
     28 C         140.3623  145.1751  156.5295 C.3     1  UNL1        0.0996
     29 C         139.8496  146.5723  156.7165 C.3     1  UNL1        0.0387
     30 C         139.2799  147.3244  155.5504 C.3     1  UNL1        0.0669
     31 N         138.0211  146.8441  154.8909 N.3     1  UNL1       -0.3211
     32 H         138.1933  145.9430  154.4451 H       1  UNL1        0.1189
     33 H         137.7266  147.5209  154.1869 H       1  UNL1        0.1189
@<TRIPOS>BOND
     1     1     2    1
     2     2     3    2
     3     3     4    1
     4     4     5    2
     5     5     6    1
     6     6     7    1
     7     7     8    2
     8     7     9   am
     9     9    28    1
    10    28    29    1
    11    29    30    1
    12    30    31    1
    13     9    10    1
    14    10    11   ar
    15    11    12   ar
    16    12    16    1
    17    16    17    1
    18    17    18    1
    19    18    19    1
    20    19    20    1
    21    20    21    1
    22    12    13   ar
    23    13    22    1
    24    22    23    1
    25    23    24    1
    26    24    25    1
    27    25    26    1
    28    26    27    1
    29    13    14   ar
    30    14    15   ar
    31     6     2    1
    32    15    10   ar
    33    15     5    1
    34    21    16    1
    35    27    22    1
    36    31    32    1
    37    31    33    1
@<TRIPOS>MOLECULE
*****
 33 37 0 0 0
SMALL
GASTEIGER

@<TRIPOS>ATOM
      1 C         145.8462  141.0922  154.3116 C.3     1  UNL1        0.0501
      2 C         145.5241  141.3708  155.7498 C.2     1  UNL1        0.0727
      3 N         146.0595  142.5076  156.5691 N.2     1  UNL1       -0.1562
      4 N         145.4764  142.4009  157.9470 N.2     1  UNL1       -0.1521
      5 C         144.5806  141.1982  157.9794 C.2     1  UNL1        0.0954
      6 C         144.6102  140.5615  156.6215 C.3     1  UNL1        0.1563
      7 C         143.8010  139.3272  156.3541 C.2     1  UNL1        0.2400
      8 O         143.8305  138.6905  154.9962 O.2     1  UNL1       -0.2737
      9 N         142.9623  138.7294  157.4447 N.am    1  UNL1       -0.2580
     10 C         142.9327  139.3660  158.8025 C.ar    1  UNL1        0.0547
     11 C         142.0940  138.7682  159.8931 C.ar    1  UNL1        0.0104
     12 C         142.0645  139.4048  161.2509 C.ar    1  UNL1       -0.0252
     13 C         142.8737  140.6392  161.5183 C.ar    1  UNL1       -0.0263
     14 C         143.7124  141.2370  160.4278 C.ar    1  UNL1       -0.0021
     15 C         143.7419  140.6004  159.0699 C.ar    1  UNL1        0.0295
     16 C         141.2258  138.8071  162.3415 C.3     1  UNL1        0.0221
     17 C         141.8250  137.8083  163.2865 C.3     1  UNL1        0.0043
     18 C         140.9863  137.2105  164.3771 C.3     1  UNL1        0.0003
     19 C         139.5483  137.6117  164.5225 C.3     1  UNL1        0.0000
     20 C         138.9490  138.6106  163.5775 C.3     1  UNL1        0.0003
     21 C         139.7878  139.2083  162.4869 C.3     1  UNL1        0.0043
     22 C         142.8442  141.2759  162.8762 C.3     1  UNL1        0.0220
     23 C         141.8145  142.3196  163.1930 C.3     1  UNL1        0.0043
     24 C         141.7851  142.9562  164.5508 C.3     1  UNL1        0.0003
     25 C         142.7854  142.5492  165.5919 C.3     1  UNL1        0.0000
     26 C         143.8151  141.5055  165.2751 C.3     1  UNL1        0.0003
     27 C         143.8445  140.8688  163.9172 C.3     1  UNL1        0.0043
     28 C         142.1530  137.4949  157.1773 C.3     1  UNL1        0.0996
     29 C         142.7987  136.1433  157.2559 C.3     1  UNL1        0.0387
     30 C         143.2160  135.4374  155.9999 C.3     1  UNL1        0.0669
     31 N         144.4727  135.8479  155.2911 N.3     1  UNL1       -0.3211
     32 H         144.3639  136.7944  154.9268 H       1  UNL1        0.1189
     33 H         144.6534  135.2054  154.5198 H       1  UNL1        0.1189
@<TRIPOS>BOND
     1     1     2    1
     2     2     3    2
     3     3     4    1
     4     4     5    2
     5     5     6    1
     6     6     7    1
     7     7     8    2
     8     7     9   am
     9     9    28    1
    10    28    29    1
    11    29    30    1
    12    30    31    1
    13     9    10    1
    14    10    11   ar
    15    11    12   ar
    16    12    16    1
    17    16    17    1
    18    17    18    1
    19    18    19    1
    20    19    20    1
    21    20    21    1
    22    12    13   ar
    23    13    22    1
    24    22    23    1
    25    23    24    1
    26    24    25    1
    27    25    26    1
    28    26    27    1
    29    13    14   ar
    30    14    15   ar
    31     6     2    1
    32    15    10   ar
    33    15     5    1
    34    21    16    1
    35    27    22    1
    36    31    32    1
    37    31    33    1
@<TRIPOS>MOLECULE
*****
 33 37 0 0 0
SMALL
GASTEIGER

@<TRIPOS>ATOM
      1 C         141.2468  142.4614  156.9295 C.3     1  UNL1        0.0501
      2 C         140.6841  141.7984  158.1517 C.2     1  UNL1        0.0727
      3 N         139.4103  141.0092  158.2192 N.2     1  UNL1       -0.1562
      4 N         139.2353  140.5313  159.6302 N.2     1  UNL1       -0.1521
      5 C         140.4010  141.0250  160.4348 C.2     1  UNL1        0.0954
      6 C         141.2964  141.8082  159.5210 C.3     1  UNL1        0.1563
      7 C         142.5536  142.4290  160.0539 C.2     1  UNL1        0.2400
      8 O         143.4491  143.2122  159.1402 O.2     1  UNL1       -0.2737
      9 N         142.9154  142.2667  161.5006 N.am    1  UNL1       -0.2580
     10 C         142.0200  141.4836  162.4143 C.ar    1  UNL1        0.0547
     11 C         142.3818  141.3213  163.8610 C.ar    1  UNL1        0.0104
     12 C         141.4864  140.5382  164.7747 C.ar    1  UNL1       -0.0252
     13 C         140.2292  139.9173  164.2418 C.ar    1  UNL1       -0.0263
     14 C         139.8674  140.0796  162.7952 C.ar    1  UNL1       -0.0021
     15 C         140.7628  140.8628  161.8814 C.ar    1  UNL1        0.0295
     16 C         141.8482  140.3759  166.2214 C.3     1  UNL1        0.0221
     17 C         141.4853  141.4442  167.2097 C.3     1  UNL1        0.0043
     18 C         141.8471  141.2818  168.6564 C.3     1  UNL1        0.0003
     19 C         142.5718  140.0511  169.1146 C.3     1  UNL1        0.0000
     20 C         142.9347  138.9827  168.1263 C.3     1  UNL1        0.0003
     21 C         142.5729  139.1451  166.6796 C.3     1  UNL1        0.0043
     22 C         139.3337  139.1342  165.1556 C.3     1  UNL1        0.0220
     23 C         138.5807  139.8334  166.2483 C.3     1  UNL1        0.0043
     24 C         137.6853  139.0503  167.1619 C.3     1  UNL1        0.0003
     25 C         137.5429  137.5677  166.9829 C.3     1  UNL1        0.0000
     26 C         138.2959  136.8685  165.8902 C.3     1  UNL1        0.0003
     27 C         139.1914  137.6517  164.9765 C.3     1  UNL1        0.0043
     28 C         144.1727  142.8875  162.0335 C.3     1  UNL1        0.0996
     29 C         144.1739  144.3227  162.4697 C.3     1  UNL1        0.0387
     30 C         143.2783  144.7674  163.5878 C.3     1  UNL1        0.0669
     31 N         142.0476  145.5711  163.2884 N.3     1  UNL1       -0.3211
     32 H         142.3181  146.4806  162.9142 H       1  UNL1        0.1189
     33 H         141.5102  145.7022  164.1454 H       1  UNL1        0.1189
@<TRIPOS>BOND
     1     1     2    1
     2     2     3    2
     3     3     4    1
     4     4     5    2
     5     5     6    1
     6     6     7    1
     7     7     8    2
     8     7     9   am
     9     9    28    1
    10    28    29    1
    11    29    30    1
    12    30    31    1
    13     9    10    1
    14    10    11   ar
    15    11    12   ar
    16    12    16    1
    17    16    17    1
    18    17    18    1
    19    18    19    1
    20    19    20    1
    21    20    21    1
    22    12    13   ar
    23    13    22    1
    24    22    23    1
    25    23    24    1
    26    24    25    1
    27    25    26    1
    28    26    27    1
    29    13    14   ar
    30    14    15   ar
    31     6     2    1
    32    15    10   ar
    33    15     5    1
    34    21    16    1
    35    27    22    1
    36    31    32    1
    37    31    33    1
@<TRIPOS>MOLECULE
*****
 33 37 0 0 0
SMALL
GASTEIGER

@<TRIPOS>ATOM
      1 C         140.9605  145.2228  156.2090 C.3     1  UNL1        0.0501
      2 C         141.1314  144.9587  157.6757 C.2     1  UNL1        0.0727
      3 N         141.8588  145.8363  158.6507 N.2     1  UNL1       -0.1562
      4 N         141.7819  145.1907  160.0024 N.2     1  UNL1       -0.1521
      5 C         141.0069  143.9140  159.8629 C.2     1  UNL1        0.0954
      6 C         140.6049  143.7706  158.4248 C.3     1  UNL1        0.1563
      7 C         139.8114  142.5767  157.9834 C.2     1  UNL1        0.2400
      8 O         139.4094  142.4333  156.5453 O.2     1  UNL1       -0.2737
      9 N         139.4199  141.5262  158.9800 N.am    1  UNL1       -0.2580
     10 C         139.8219  141.6696  160.4179 C.ar    1  UNL1        0.0547
     11 C         139.4304  140.6190  161.4145 C.ar    1  UNL1        0.0104
     12 C         139.8323  140.7624  162.8524 C.ar    1  UNL1       -0.0252
     13 C         140.6258  141.9563  163.2939 C.ar    1  UNL1       -0.0263
     14 C         141.0174  143.0068  162.2974 C.ar    1  UNL1       -0.0021
     15 C         140.6154  142.8635  160.8594 C.ar    1  UNL1        0.0295
     16 C         139.4408  139.7119  163.8491 C.3     1  UNL1        0.0221
     17 C         140.1363  138.3830  163.8504 C.3     1  UNL1        0.0043
     18 C         139.7448  137.3324  164.8470 C.3     1  UNL1        0.0003
     19 C         138.6577  137.6110  165.8423 C.3     1  UNL1        0.0000
     20 C         137.9622  138.9400  165.8410 C.3     1  UNL1        0.0003
     21 C         138.3537  139.9904  164.8444 C.3     1  UNL1        0.0043
     22 C         141.0279  142.0998  164.7319 C.3     1  UNL1        0.0220
     23 C         140.1202  142.8016  165.6981 C.3     1  UNL1        0.0043
     24 C         140.5223  142.9450  167.1360 C.3     1  UNL1        0.0003
     25 C         141.8321  142.3866  167.6079 C.3     1  UNL1        0.0000
     26 C         142.7398  141.6848  166.6417 C.3     1  UNL1        0.0003
     27 C         142.3377  141.5414  165.2037 C.3     1  UNL1        0.0043
     28 C         138.6263  140.3322  158.5385 C.3     1  UNL1        0.0996
     29 C         139.3066  139.0095  158.3447 C.3     1  UNL1        0.0387
     30 C         139.6737  138.5500  156.9648 C.3     1  UNL1        0.0669
     31 N         139.2535  137.1904  156.4904 N.3     1  UNL1       -0.3211
     32 H         139.7302  136.4760  157.0407 H       1  UNL1        0.1189
     33 H         139.4999  137.0824  155.5066 H       1  UNL1        0.1189
@<TRIPOS>BOND
     1     1     2    1
     2     2     3    2
     3     3     4    1
     4     4     5    2
     5     5     6    1
     6     6     7    1
     7     7     8    2
     8     7     9   am
     9     9    28    1
    10    28    29    1
    11    29    30    1
    12    30    31    1
    13     9    10    1
    14    10    11   ar
    15    11    12   ar
    16    12    16    1
    17    16    17    1
    18    17    18    1
    19    18    19    1
    20    19    20    1
    21    20    21    1
    22    12    13   ar
    23    13    22    1
    24    22    23    1
    25    23    24    1
    26    24    25    1
    27    25    26    1
    28    26    27    1
    29    13    14   ar
    30    14    15   ar
    31     6     2    1
    32    15    10   ar
    33    15     5    1
    34    21    16    1
    35    27    22    1
    36    31    32    1
    37    31    33    1
@<TRIPOS>MOLECULE
*****
 33 37 0 0 0
SMALL
GASTEIGER

@<TRIPOS>ATOM
      1 C         139.0919  142.4980  156.1473 C.3     1  UNL1        0.0501
      2 C         138.8282  141.8144  157.4562 C.2     1  UNL1        0.0727
      3 N         137.7111  140.8545  157.7403 N.2     1  UNL1       -0.1562
      4 N         137.8277  140.4175  159.1704 N.2     1  UNL1       -0.1521
      5 C         139.0170  141.1074  159.7703 C.2     1  UNL1        0.0954
      6 C         139.6353  141.9706  158.7108 C.3     1  UNL1        0.1563
      7 C         140.8533  142.7875  159.0254 C.2     1  UNL1        0.2400
      8 O         141.4717  143.6509  157.9660 O.2     1  UNL1       -0.2737
      9 N         141.4531  142.7411  160.3996 N.am    1  UNL1       -0.2580
     10 C         140.8349  141.8778  161.4590 C.ar    1  UNL1        0.0547
     11 C         141.4346  141.8314  162.8331 C.ar    1  UNL1        0.0104
     12 C         140.8164  140.9681  163.8925 C.ar    1  UNL1       -0.0252
     13 C         139.5983  140.1513  163.5779 C.ar    1  UNL1       -0.0263
     14 C         138.9985  140.1977  162.2039 C.ar    1  UNL1       -0.0021
     15 C         139.6168  141.0609  161.1444 C.ar    1  UNL1        0.0295
     16 C         141.4162  140.9217  165.2667 C.3     1  UNL1        0.0221
     17 C         141.3082  142.1121  166.1728 C.3     1  UNL1        0.0043
     18 C         141.9080  142.0656  167.5469 C.3     1  UNL1        0.0003
     19 C         142.6157  140.8287  168.0148 C.3     1  UNL1        0.0000
     20 C         142.7237  139.6382  167.1087 C.3     1  UNL1        0.0003
     21 C         142.1239  139.6847  165.7346 C.3     1  UNL1        0.0043
     22 C         138.9800  139.2879  164.6374 C.3     1  UNL1        0.0220
     23 C         138.3376  139.9177  165.8377 C.3     1  UNL1        0.0043
     24 C         137.7193  139.0544  166.8970 C.3     1  UNL1        0.0003
     25 C         137.7433  137.5611  166.7561 C.3     1  UNL1        0.0000
     26 C         138.3857  136.9314  165.5558 C.3     1  UNL1        0.0003
     27 C         139.0040  137.7948  164.4964 C.3     1  UNL1        0.0043
     28 C         142.6713  143.5580  160.7142 C.3     1  UNL1        0.0996
     29 C         144.0374  142.9597  160.5540 C.3     1  UNL1        0.0387
     30 C         144.3981  142.2423  159.2871 C.3     1  UNL1        0.0669
     31 N         144.4710  142.9968  157.9927 N.3     1  UNL1       -0.3211
     32 H         143.5406  143.3307  157.7409 H       1  UNL1        0.1189
     33 H         144.8211  142.3806  157.2592 H       1  UNL1        0.1189
@<TRIPOS>BOND
     1     1     2    1
     2     2     3    2
     3     3     4    1
     4     4     5    2
     5     5     6    1
     6     6     7    1
     7     7     8    2
     8     7     9   am
     9     9    28    1
    10    28    29    1
    11    29    30    1
    12    30    31    1
    13     9    10    1
    14    10    11   ar
    15    11    12   ar
    16    12    16    1
    17    16    17    1
    18    17    18    1
    19    18    19    1
    20    19    20    1
    21    20    21    1
    22    12    13   ar
    23    13    22    1
    24    22    23    1
    25    23    24    1
    26    24    25    1
    27    25    26    1
    28    26    27    1
    29    13    14   ar
    30    14    15   ar
    31     6     2    1
    32    15    10   ar
    33    15     5    1
    34    21    16    1
    35    27    22    1
    36    31    32    1
    37    31    33    1
@<TRIPOS>MOLECULE
*****
 33 37 0 0 0
SMALL
GASTEIGER

@<TRIPOS>ATOM
      1 C         142.5499  139.3571  168.0399 C.3     1  UNL1        0.0501
      2 C         142.9082  139.4816  166.5886 C.2     1  UNL1        0.0727
      3 N         143.9695  138.7003  165.8723 N.2     1  UNL1       -0.1562
      4 N         143.9853  139.1450  164.4398 N.2     1  UNL1       -0.1521
      5 C         142.9337  140.2012  164.2708 C.2     1  UNL1        0.0954
      6 C         142.2680  140.4091  165.5988 C.3     1  UNL1        0.1563
      7 C         141.1648  141.4163  165.7352 C.2     1  UNL1        0.2400
      8 O         140.4991  141.6244  167.0632 O.2     1  UNL1       -0.2737
      9 N         140.7274  142.2156  164.5436 N.am    1  UNL1       -0.2580
     10 C         141.3931  142.0076  163.2156 C.ar    1  UNL1        0.0547
     11 C         140.9557  142.8068  162.0240 C.ar    1  UNL1        0.0104
     12 C         141.6213  142.5988  160.6960 C.ar    1  UNL1       -0.0252
     13 C         142.7245  141.5916  160.5596 C.ar    1  UNL1       -0.0263
     14 C         143.1619  140.7924  161.7512 C.ar    1  UNL1       -0.0021
     15 C         142.4962  141.0004  163.0792 C.ar    1  UNL1        0.0295
     16 C         141.1839  143.3980  159.5044 C.3     1  UNL1        0.0221
     17 C         141.7292  144.7781  159.2857 C.3     1  UNL1        0.0043
     18 C         141.2917  145.5773  158.0940 C.3     1  UNL1        0.0003
     19 C         140.3090  144.9963  157.1211 C.3     1  UNL1        0.0000
     20 C         139.7637  143.6161  157.3398 C.3     1  UNL1        0.0003
     21 C         140.2012  142.8170  158.5314 C.3     1  UNL1        0.0043
     22 C         143.3902  141.3835  159.2316 C.3     1  UNL1        0.0220
     23 C         142.9395  140.2704  158.3328 C.3     1  UNL1        0.0043
     24 C         143.6053  140.0625  157.0049 C.3     1  UNL1        0.0003
     25 C         144.7218  140.9676  156.5757 C.3     1  UNL1        0.0000
     26 C         145.1725  142.0807  157.4745 C.3     1  UNL1        0.0003
     27 C         144.5067  142.2887  158.8024 C.3     1  UNL1        0.0043
     28 C         139.6242  143.2228  164.6800 C.3     1  UNL1        0.0996
     29 C         138.1927  142.7846  164.5862 C.3     1  UNL1        0.0387
     30 C         137.5730  142.5289  163.2444 C.3     1  UNL1        0.0669
     31 N         136.7188  141.3142  163.0321 N.3     1  UNL1       -0.3211
     32 H         137.2930  140.4755  163.1176 H       1  UNL1        0.1189
     33 H         136.3040  141.3488  162.1009 H       1  UNL1        0.1189
@<TRIPOS>BOND
     1     1     2    1
     2     2     3    2
     3     3     4    1
     4     4     5    2
     5     5     6    1
     6     6     7    1
     7     7     8    2
     8     7     9   am
     9     9    28    1
    10    28    29    1
    11    29    30    1
    12    30    31    1
    13     9    10    1
    14    10    11   ar
    15    11    12   ar
    16    12    16    1
    17    16    17    1
    18    17    18    1
    19    18    19    1
    20    19    20    1
    21    20    21    1
    22    12    13   ar
    23    13    22    1
    24    22    23    1
    25    23    24    1
    26    24    25    1
    27    25    26    1
    28    26    27    1
    29    13    14   ar
    30    14    15   ar
    31     6     2    1
    32    15    10   ar
    33    15     5    1
    34    21    16    1
    35    27    22    1
    36    31    32    1
    37    31    33    1
@<TRIPOS>MOLECULE
*****
 33 37 0 0 0
SMALL
GASTEIGER

@<TRIPOS>ATOM
      1 C         137.4752  143.8686  163.8678 C.3     1  UNL1        0.0501
      2 C         138.2345  143.6351  162.5954 C.2     1  UNL1        0.0727
      3 N         138.8602  144.6927  161.7352 N.2     1  UNL1       -0.1562
      4 N         139.5138  144.0142  160.5680 N.2     1  UNL1       -0.1521
      5 C         139.2921  142.5371  160.7068 C.2     1  UNL1        0.0954
      6 C         138.5015  142.3029  161.9598 C.3     1  UNL1        0.1563
      7 C         138.1267  140.9067  162.3601 C.2     1  UNL1        0.2400
      8 O         137.3361  140.6723  163.6131 O.2     1  UNL1       -0.2737
      9 N         138.5427  139.7448  161.5074 N.am    1  UNL1       -0.2580
     10 C         139.3332  139.9791  160.2545 C.ar    1  UNL1        0.0547
     11 C         139.7492  138.8172  159.4017 C.ar    1  UNL1        0.0104
     12 C         140.5398  139.0515  158.1488 C.ar    1  UNL1       -0.0252
     13 C         140.9145  140.4477  157.7484 C.ar    1  UNL1       -0.0263
     14 C         140.4986  141.6095  158.6011 C.ar    1  UNL1       -0.0021
     15 C         139.7080  141.3753  159.8541 C.ar    1  UNL1        0.0295
     16 C         140.9557  137.8896  157.2960 C.3     1  UNL1        0.0221
     17 C         140.0184  137.3476  156.2580 C.3     1  UNL1        0.0043
     18 C         140.4344  136.1857  155.4053 C.3     1  UNL1        0.0003
     19 C         141.7877  135.5659  155.5907 C.3     1  UNL1        0.0000
     20 C         142.7250  136.1080  156.6287 C.3     1  UNL1        0.0003
     21 C         142.3090  137.2698  157.4814 C.3     1  UNL1        0.0043
     22 C         141.7052  140.6820  156.4954 C.3     1  UNL1        0.0220
     23 C         140.9996  140.8314  155.1802 C.3     1  UNL1        0.0043
     24 C         141.7902  141.0657  153.9273 C.3     1  UNL1        0.0003
     25 C         143.2866  141.1508  153.9895 C.3     1  UNL1        0.0000
     26 C         143.9922  141.0015  155.3048 C.3     1  UNL1        0.0003
     27 C         143.2014  140.7671  156.5577 C.3     1  UNL1        0.0043
     28 C         138.1679  138.3486  161.9077 C.3     1  UNL1        0.0996
     29 C         138.9490  137.6388  162.9736 C.3     1  UNL1        0.0387
     30 C         140.4183  137.8991  163.1256 C.3     1  UNL1        0.0669
     31 N         141.4037  137.1568  162.2722 N.3     1  UNL1       -0.3211
     32 H         141.3805  136.1653  162.5102 H       1  UNL1        0.1189
     33 H         142.3409  137.5242  162.4371 H       1  UNL1        0.1189
@<TRIPOS>BOND
     1     1     2    1
     2     2     3    2
     3     3     4    1
     4     4     5    2
     5     5     6    1
     6     6     7    1
     7     7     8    2
     8     7     9   am
     9     9    28    1
    10    28    29    1
    11    29    30    1
    12    30    31    1
    13     9    10    1
    14    10    11   ar
    15    11    12   ar
    16    12    16    1
    17    16    17    1
    18    17    18    1
    19    18    19    1
    20    19    20    1
    21    20    21    1
    22    12    13   ar
    23    13    22    1
    24    22    23    1
    25    23    24    1
    26    24    25    1
    27    25    26    1
    28    26    27    1
    29    13    14   ar
    30    14    15   ar
    31     6     2    1
    32    15    10   ar
    33    15     5    1
    34    21    16    1
    35    27    22    1
    36    31    32    1
    37    31    33    1
