@<TRIPOS>MOLECULE
*****
 21 22 0 0 0
SMALL
GASTEIGER

@<TRIPOS>ATOM
      1 C         144.0649  142.9864  163.9080 C.ar    1  UNL1        0.1418
      2 C         143.9412  144.4512  163.6097 C.ar    1  UNL1        0.0368
      3 C         142.6039  145.1246  163.6995 C.ar    1  UNL1        0.0032
      4 C         141.3902  144.3332  164.0877 C.ar    1  UNL1        0.0286
      5 C         141.5140  142.8684  164.3860 C.ar    1  UNL1        0.1456
      6 C         142.8513  142.1950  164.2962 C.ar    1  UNL1        0.0741
      7 C         145.4972  140.8188  163.9089 C.3     1  UNL1        0.2525
      8 O         145.4023  142.3130  163.8182 O.3     1  UNL1       -0.4713
      9 C         140.0529  145.0065  164.1775 C.3     1  UNL1        0.1023
     10 N         139.1821  145.1102  162.9606 N.3     1  UNL1       -0.2664
     11 C         137.9417  144.2738  162.8525 C.3     1  UNL1        0.0899
     12 C         139.5518  146.0503  161.8516 C.3     1  UNL1        0.0899
     13 O         140.3003  142.0769  164.7742 O.3     1  UNL1       -0.4536
     14 C         140.1226  141.6238  166.1931 C.ar    1  UNL1        0.1462
     15 C         139.5193  140.2812  166.4817 C.ar    1  UNL1        0.0384
     16 C         139.3417  139.8281  167.9006 C.ar    1  UNL1        0.0154
     17 C         139.7673  140.7177  169.0308 C.ar    1  UNL1        0.0684
     18 CL        139.5896  140.2647  170.4496 Cl      1  UNL1       -0.0814
     19 C         140.3706  142.0604  168.7422 C.ar    1  UNL1        0.0712
     20 CL        140.7962  142.9500  169.8724 Cl      1  UNL1       -0.0813
     21 C         140.5482  142.5135  167.3234 C.ar    1  UNL1        0.0497
@<TRIPOS>BOND
     1     7     8    1
     2     8     1    1
     3     1     2   ar
     4     2     3   ar
     5     3     4   ar
     6     4     9    1
     7     9    10    1
     8    10    11    1
     9    10    12    1
    10     4     5   ar
    11     5    13    1
    12    13    14    1
    13    14    15   ar
    14    15    16   ar
    15    16    17   ar
    16    17    18    1
    17    17    19   ar
    18    19    20    1
    19    19    21   ar
    20     5     6   ar
    21     6     1   ar
    22    21    14   ar
@<TRIPOS>MOLECULE
*****
 21 22 0 0 0
SMALL
GASTEIGER

@<TRIPOS>ATOM
      1 C         137.8855  142.9190  163.8042 C.ar    1  UNL1        0.1418
      2 C         137.7050  142.5865  162.3528 C.ar    1  UNL1        0.0368
      3 C         137.8024  141.1624  161.8918 C.ar    1  UNL1        0.0032
      4 C         138.0802  140.0708  162.8822 C.ar    1  UNL1        0.0286
      5 C         138.2606  140.4032  164.3337 C.ar    1  UNL1        0.1456
      6 C         138.1633  141.8273  164.7947 C.ar    1  UNL1        0.0741
      7 C         138.7588  144.8710  165.2795 C.3     1  UNL1        0.2525
      8 O         137.7881  144.3430  164.2653 O.3     1  UNL1       -0.4713
      9 C         138.1776  138.6467  162.4212 C.3     1  UNL1        0.1023
     10 N         139.4632  138.1309  161.8459 N.3     1  UNL1       -0.2664
     11 C         139.7003  138.1914  160.3660 C.3     1  UNL1        0.0899
     12 C         140.5118  137.5544  162.7505 C.3     1  UNL1        0.0899
     13 O         138.5385  139.3116  165.3243 O.3     1  UNL1       -0.4536
     14 C         139.5877  139.5048  166.3787 C.ar    1  UNL1        0.1462
     15 C         141.0402  139.3969  166.0201 C.ar    1  UNL1        0.0384
     16 C         142.0894  139.5901  167.0746 C.ar    1  UNL1        0.0154
     17 C         141.6861  139.8913  168.4876 C.ar    1  UNL1        0.0684
     18 CL        142.7352  140.0845  169.5420 Cl      1  UNL1       -0.0814
     19 C         140.2335  139.9992  168.8462 C.ar    1  UNL1        0.0712
     20 CL        139.8302  140.3004  170.2592 Cl      1  UNL1       -0.0813
     21 C         139.1844  139.8060  167.7918 C.ar    1  UNL1        0.0497
@<TRIPOS>BOND
     1     7     8    1
     2     8     1    1
     3     1     2   ar
     4     2     3   ar
     5     3     4   ar
     6     4     9    1
     7     9    10    1
     8    10    11    1
     9    10    12    1
    10     4     5   ar
    11     5    13    1
    12    13    14    1
    13    14    15   ar
    14    15    16   ar
    15    16    17   ar
    16    17    18    1
    17    17    19   ar
    18    19    20    1
    19    19    21   ar
    20     5     6   ar
    21     6     1   ar
    22    21    14   ar
@<TRIPOS>MOLECULE
*****
 21 22 0 0 0
SMALL
GASTEIGER

@<TRIPOS>ATOM
      1 C         139.1676  144.2718  163.3278 C.ar    1  UNL1        0.1418
      2 C         137.7875  143.7090  163.1587 C.ar    1  UNL1        0.0368
      3 C         137.4538  142.3594  163.7217 C.ar    1  UNL1        0.0032
      4 C         138.5000  141.5724  164.4538 C.ar    1  UNL1        0.0286
      5 C         139.8801  142.1352  164.6229 C.ar    1  UNL1        0.1456
      6 C         140.2139  143.4849  164.0599 C.ar    1  UNL1        0.0741
      7 C         140.1596  145.7320  161.4215 C.3     1  UNL1        0.2525
      8 O         139.5014  145.6215  162.7649 O.3     1  UNL1       -0.4713
      9 C         138.1663  140.2228  165.0167 C.3     1  UNL1        0.1023
     10 N         138.5847  138.9812  164.2865 N.3     1  UNL1       -0.2664
     11 C         138.3918  138.8831  162.8021 C.3     1  UNL1        0.0899
     12 C         139.1959  137.8375  165.0405 C.3     1  UNL1        0.0899
     13 O         140.9265  141.3483  165.3550 O.3     1  UNL1       -0.4536
     14 C         141.4254  141.8221  166.6879 C.ar    1  UNL1        0.1462
     15 C         142.8954  141.8089  166.9864 C.ar    1  UNL1        0.0384
     16 C         143.3943  142.2827  168.3193 C.ar    1  UNL1        0.0154
     17 C         142.4233  142.7698  169.3537 C.ar    1  UNL1        0.0684
     18 CL        142.9222  143.2436  170.6865 Cl      1  UNL1       -0.0814
     19 C         140.9533  142.7830  169.0551 C.ar    1  UNL1        0.0712
     20 CL        139.9823  143.2700  170.0895 Cl      1  UNL1       -0.0813
     21 C         140.4544  142.3092  167.7223 C.ar    1  UNL1        0.0497
@<TRIPOS>BOND
     1     7     8    1
     2     8     1    1
     3     1     2   ar
     4     2     3   ar
     5     3     4   ar
     6     4     9    1
     7     9    10    1
     8    10    11    1
     9    10    12    1
    10     4     5   ar
    11     5    13    1
    12    13    14    1
    13    14    15   ar
    14    15    16   ar
    15    16    17   ar
    16    17    18    1
    17    17    19   ar
    18    19    20    1
    19    19    21   ar
    20     5     6   ar
    21     6     1   ar
    22    21    14   ar
@<TRIPOS>MOLECULE
*****
 21 22 0 0 0
SMALL
GASTEIGER

@<TRIPOS>ATOM
      1 C         138.7568  138.5007  162.6445 C.ar    1  UNL1        0.1418
      2 C         138.9836  137.3735  163.6077 C.ar    1  UNL1        0.0368
      3 C         138.9128  137.6235  165.0850 C.ar    1  UNL1        0.0032
      4 C         138.6151  139.0008  165.5992 C.ar    1  UNL1        0.0286
      5 C         138.3883  140.1281  164.6360 C.ar    1  UNL1        0.1456
      6 C         138.4591  139.8780  163.1587 C.ar    1  UNL1        0.0741
      7 C         140.1182  138.4600  160.4321 C.3     1  UNL1        0.2525
      8 O         138.8276  138.2507  161.1672 O.3     1  UNL1       -0.4713
      9 C         138.5443  139.2508  167.0765 C.3     1  UNL1        0.1023
     10 N         139.6932  139.9085  167.7817 N.3     1  UNL1       -0.2664
     11 C         141.0242  140.0251  167.1000 C.3     1  UNL1        0.0899
     12 C         139.5111  140.4498  169.1689 C.3     1  UNL1        0.0899
     13 O         138.0906  141.5055  165.1501 O.3     1  UNL1       -0.4536
     14 C         138.5646  142.7085  164.3897 C.ar    1  UNL1        0.1462
     15 C         137.6354  143.4135  163.4465 C.ar    1  UNL1        0.0384
     16 C         138.1094  144.6166  162.6862 C.ar    1  UNL1        0.0154
     17 C         139.5125  145.1145  162.8691 C.ar    1  UNL1        0.0684
     18 CL        139.9864  146.3175  162.1087 Cl      1  UNL1       -0.0814
     19 C         140.4416  144.4095  163.8123 C.ar    1  UNL1        0.0712
     20 CL        141.8446  144.9074  163.9951 Cl      1  UNL1       -0.0813
     21 C         139.9677  143.2065  164.5726 C.ar    1  UNL1        0.0497
@<TRIPOS>BOND
     1     7     8    1
     2     8     1    1
     3     1     2   ar
     4     2     3   ar
     5     3     4   ar
     6     4     9    1
     7     9    10    1
     8    10    11    1
     9    10    12    1
    10     4     5   ar
    11     5    13    1
    12    13    14    1
    13    14    15   ar
    14    15    16   ar
    15    16    17   ar
    16    17    18    1
    17    17    19   ar
    18    19    20    1
    19    19    21   ar
    20     5     6   ar
    21     6     1   ar
    22    21    14   ar
@<TRIPOS>MOLECULE
*****
 21 22 0 0 0
SMALL
GASTEIGER

@<TRIPOS>ATOM
      1 C         139.1975  139.9082  168.1025 C.ar    1  UNL1        0.1418
      2 C         138.2348  138.9442  167.4749 C.ar    1  UNL1        0.0368
      3 C         137.9397  139.0279  166.0066 C.ar    1  UNL1        0.0032
      4 C         138.6073  140.0756  165.1659 C.ar    1  UNL1        0.0286
      5 C         139.5699  141.0395  165.7936 C.ar    1  UNL1        0.1456
      6 C         139.8651  140.9558  167.2619 C.ar    1  UNL1        0.0741
      7 C         140.0856  141.0027  170.2850 C.3     1  UNL1        0.2525
      8 O         139.4926  139.8245  169.5708 O.3     1  UNL1       -0.4713
      9 C         138.3121  140.1593  163.6976 C.3     1  UNL1        0.1023
     10 N         138.6198  138.9951  162.8032 N.3     1  UNL1       -0.2664
     11 C         139.8659  138.1895  163.0226 C.3     1  UNL1        0.0899
     12 C         137.6812  138.6365  161.6894 C.3     1  UNL1        0.0899
     13 O         140.2376  142.0873  164.9529 O.3     1  UNL1       -0.4536
     14 C         141.7042  141.9873  164.6547 C.ar    1  UNL1        0.1462
     15 C         142.5565  143.2215  164.6601 C.ar    1  UNL1        0.0384
     16 C         144.0232  143.1215  164.3618 C.ar    1  UNL1        0.0154
     17 C         144.6375  141.7871  164.0583 C.ar    1  UNL1        0.0684
     18 CL        146.1041  141.6871  163.7600 Cl      1  UNL1       -0.0814
     19 C         143.7851  140.5528  164.0529 C.ar    1  UNL1        0.0712
     20 CL        144.3994  139.2185  163.7493 Cl      1  UNL1       -0.0813
     21 C         142.3185  140.6529  164.3511 C.ar    1  UNL1        0.0497
@<TRIPOS>BOND
     1     7     8    1
     2     8     1    1
     3     1     2   ar
     4     2     3   ar
     5     3     4   ar
     6     4     9    1
     7     9    10    1
     8    10    11    1
     9    10    12    1
    10     4     5   ar
    11     5    13    1
    12    13    14    1
    13    14    15   ar
    14    15    16   ar
    15    16    17   ar
    16    17    18    1
    17    17    19   ar
    18    19    20    1
    19    19    21   ar
    20     5     6   ar
    21     6     1   ar
    22    21    14   ar
@<TRIPOS>MOLECULE
*****
 21 22 0 0 0
SMALL
GASTEIGER

@<TRIPOS>ATOM
      1 C         142.3997  139.9906  168.1044 C.ar    1  UNL1        0.1418
      2 C         142.9653  138.9883  167.1424 C.ar    1  UNL1        0.0368
      3 C         142.2848  138.7432  165.8283 C.ar    1  UNL1        0.0032
      4 C         141.0387  139.5004  165.4762 C.ar    1  UNL1        0.0286
      5 C         140.4732  140.5027  166.4382 C.ar    1  UNL1        0.1456
      6 C         141.1537  140.7477  167.7523 C.ar    1  UNL1        0.0741
      7 C         143.4658  141.6300  169.8149 C.3     1  UNL1        0.2525
      8 O         143.0802  140.2356  169.4185 O.3     1  UNL1       -0.4713
      9 C         140.3583  139.2553  164.1621 C.3     1  UNL1        0.1023
     10 N         139.2811  138.2167  164.0575 N.3     1  UNL1       -0.2664
     11 C         138.7506  137.8192  162.7119 C.3     1  UNL1        0.0899
     12 C         138.7343  137.5756  165.2985 C.3     1  UNL1        0.0899
     13 O         139.2271  141.2599  166.0862 O.3     1  UNL1       -0.4536
     14 C         139.2974  142.4210  165.1391 C.ar    1  UNL1        0.1462
     15 C         138.0978  142.7939  164.3194 C.ar    1  UNL1        0.0384
     16 C         138.1681  143.9551  163.3723 C.ar    1  UNL1        0.0154
     17 C         139.4380  144.7432  163.2450 C.ar    1  UNL1        0.0684
     18 CL        139.5083  145.9042  162.2979 Cl      1  UNL1       -0.0814
     19 C         140.6376  144.3702  164.0647 C.ar    1  UNL1        0.0712
     20 CL        141.9075  145.1583  163.9373 Cl      1  UNL1       -0.0813
     21 C         140.5673  143.2091  165.0117 C.ar    1  UNL1        0.0497
@<TRIPOS>BOND
     1     7     8    1
     2     8     1    1
     3     1     2   ar
     4     2     3   ar
     5     3     4   ar
     6     4     9    1
     7     9    10    1
     8    10    11    1
     9    10    12    1
    10     4     5   ar
    11     5    13    1
    12    13    14    1
    13    14    15   ar
    14    15    16   ar
    15    16    17   ar
    16    17    18    1
    17    17    19   ar
    18    19    20    1
    19    19    21   ar
    20     5     6   ar
    21     6     1   ar
    22    21    14   ar
@<TRIPOS>MOLECULE
*****
 21 22 0 0 0
SMALL
GASTEIGER

@<TRIPOS>ATOM
      1 C         139.1370  138.2551  165.0181 C.ar    1  UNL1        0.1418
      2 C         138.1565  138.5633  166.1105 C.ar    1  UNL1        0.0368
      3 C         138.5874  139.3697  167.2996 C.ar    1  UNL1        0.0032
      4 C         139.9990  139.8679  167.3963 C.ar    1  UNL1        0.0286
      5 C         140.9795  139.5597  166.3039 C.ar    1  UNL1        0.1456
      6 C         140.5485  138.7533  165.1147 C.ar    1  UNL1        0.0741
      7 C         139.0462  137.9139  162.4441 C.3     1  UNL1        0.2525
      8 O         138.7061  137.4487  163.8289 O.3     1  UNL1       -0.4713
      9 C         140.4299  140.6743  168.5854 C.3     1  UNL1        0.1023
     10 N         140.9161  139.9826  169.8244 N.3     1  UNL1       -0.2664
     11 C         142.2576  139.3115  169.8314 C.3     1  UNL1        0.0899
     12 C         140.0607  139.9619  171.0565 C.3     1  UNL1        0.0899
     13 O         142.3911  140.0579  166.4005 O.3     1  UNL1       -0.4536
     14 C         142.8600  141.1621  165.5000 C.ar    1  UNL1        0.1462
     15 C         142.0775  142.4385  165.4084 C.ar    1  UNL1        0.0384
     16 C         142.5465  143.5427  164.5078 C.ar    1  UNL1        0.0154
     17 C         143.7980  143.3704  163.6991 C.ar    1  UNL1        0.0684
     18 CL        144.2669  144.4746  162.7986 Cl      1  UNL1       -0.0814
     19 C         144.5805  142.0940  163.7908 C.ar    1  UNL1        0.0712
     20 CL        145.8320  141.9218  162.9820 Cl      1  UNL1       -0.0813
     21 C         144.1116  140.9898  164.6912 C.ar    1  UNL1        0.0497
@<TRIPOS>BOND
     1     7     8    1
     2     8     1    1
     3     1     2   ar
     4     2     3   ar
     5     3     4   ar
     6     4     9    1
     7     9    10    1
     8    10    11    1
     9    10    12    1
    10     4     5   ar
    11     5    13    1
    12    13    14    1
    13    14    15   ar
    14    15    16   ar
    15    16    17   ar
    16    17    18    1
    17    17    19   ar
    18    19    20    1
    19    19    21   ar
    20     5     6   ar
    21     6     1   ar
    22    21    14   ar
@<TRIPOS>MOLECULE
*****
 21 22 0 0 0
SMALL
GASTEIGER

@<TRIPOS>ATOM
      1 C         141.9759  138.9071  165.1363 C.ar    1  UNL1        0.1418
      2 C         142.8353  138.8359  166.3636 C.ar    1  UNL1        0.0368
      3 C         142.5748  139.7597  167.5163 C.ar    1  UNL1        0.0032
      4 C         141.4549  140.7547  167.4417 C.ar    1  UNL1        0.0286
      5 C         140.5954  140.8259  166.2145 C.ar    1  UNL1        0.1456
      6 C         140.8559  139.9021  165.0618 C.ar    1  UNL1        0.0741
      7 C         141.1134  137.1801  163.3976 C.3     1  UNL1        0.2525
      8 O         142.2364  137.9833  163.9836 O.3     1  UNL1       -0.4713
      9 C         141.1944  141.6785  168.5945 C.3     1  UNL1        0.1023
     10 N         140.4624  141.1795  169.8049 N.3     1  UNL1       -0.2664
     11 C         139.1716  140.4322  169.6457 C.3     1  UNL1        0.0899
     12 C         141.0213  141.4277  171.1746 C.3     1  UNL1        0.0899
     13 O         139.4754  141.8209  166.1399 O.3     1  UNL1       -0.4536
     14 C         139.5093  142.9127  165.1119 C.ar    1  UNL1        0.1462
     15 C         138.2761  143.2378  164.3221 C.ar    1  UNL1        0.0384
     16 C         138.3101  144.3296  163.2941 C.ar    1  UNL1        0.0154
     17 C         139.5771  145.0962  163.0558 C.ar    1  UNL1        0.0684
     18 CL        139.6110  146.1880  162.0277 Cl      1  UNL1       -0.0814
     19 C         140.8103  144.7711  163.8455 C.ar    1  UNL1        0.0712
     20 CL        142.0773  145.5378  163.6072 Cl      1  UNL1       -0.0813
     21 C         140.7763  143.6794  164.8735 C.ar    1  UNL1        0.0497
@<TRIPOS>BOND
     1     7     8    1
     2     8     1    1
     3     1     2   ar
     4     2     3   ar
     5     3     4   ar
     6     4     9    1
     7     9    10    1
     8    10    11    1
     9    10    12    1
    10     4     5   ar
    11     5    13    1
    12    13    14    1
    13    14    15   ar
    14    15    16   ar
    15    16    17   ar
    16    17    18    1
    17    17    19   ar
    18    19    20    1
    19    19    21   ar
    20     5     6   ar
    21     6     1   ar
    22    21    14   ar
@<TRIPOS>MOLECULE
*****
 21 22 0 0 0
SMALL
GASTEIGER

@<TRIPOS>ATOM
      1 C         139.2995  139.8525  168.0512 C.ar    1  UNL1        0.1418
      2 C         138.2376  139.0779  167.3284 C.ar    1  UNL1        0.0368
      3 C         138.2042  139.0706  165.8288 C.ar    1  UNL1        0.0032
      4 C         139.2326  139.8379  165.0520 C.ar    1  UNL1        0.0286
      5 C         140.2945  140.6125  165.7747 C.ar    1  UNL1        0.1456
      6 C         140.3279  140.6198  167.2743 C.ar    1  UNL1        0.0741
      7 C         140.6398  140.0111  170.2711 C.3     1  UNL1        0.2525
      8 O         139.3329  139.8598  169.5508 O.3     1  UNL1       -0.4713
      9 C         139.1992  139.8307  163.5524 C.3     1  UNL1        0.1023
     10 N         139.1435  138.5286  162.8097 N.3     1  UNL1       -0.2664
     11 C         138.0215  138.2591  161.8514 C.3     1  UNL1        0.0899
     12 C         140.2099  137.4959  163.0254 C.3     1  UNL1        0.0899
     13 O         141.3230  141.3799  164.9979 O.3     1  UNL1       -0.4536
     14 C         140.9274  142.6175  164.2484 C.ar    1  UNL1        0.1462
     15 C         139.9388  143.5734  164.8477 C.ar    1  UNL1        0.0384
     16 C         139.5432  144.8111  164.0981 C.ar    1  UNL1        0.0154
     17 C         140.1361  145.0928  162.7494 C.ar    1  UNL1        0.0684
     18 CL        139.7405  146.3305  162.0000 Cl      1  UNL1       -0.0814
     19 C         141.1247  144.1370  162.1502 C.ar    1  UNL1        0.0712
     20 CL        141.7176  144.4187  160.8015 Cl      1  UNL1       -0.0813
     21 C         141.5203  142.8993  162.8997 C.ar    1  UNL1        0.0497
@<TRIPOS>BOND
     1     7     8    1
     2     8     1    1
     3     1     2   ar
     4     2     3   ar
     5     3     4   ar
     6     4     9    1
     7     9    10    1
     8    10    11    1
     9    10    12    1
    10     4     5   ar
    11     5    13    1
    12    13    14    1
    13    14    15   ar
    14    15    16   ar
    15    16    17   ar
    16    17    18    1
    17    17    19   ar
    18    19    20    1
    19    19    21   ar
    20     5     6   ar
    21     6     1   ar
    22    21    14   ar
