@<TRIPOS>MOLECULE
*****
 37 42 0 0 0
SMALL
GASTEIGER

@<TRIPOS>ATOM
      1 C         144.3147  141.9020  158.9170 C.2     1  UNL1        0.0866
      2 N         145.3406  142.4129  157.9492 N.2     1  UNL1       -0.1523
      3 N         145.3542  141.4968  156.7615 N.2     1  UNL1       -0.1523
      4 C         144.3366  140.4198  156.9953 C.2     1  UNL1        0.0858
      5 C         143.6942  140.6702  158.3275 C.3     1  UNL1        0.0883
      6 C         142.6767  139.5932  158.5612 C.3     1  UNL1        0.0384
      7 C         142.6902  138.6771  157.3735 C.ar    1  UNL1       -0.0205
      8 C         141.9009  137.4437  157.0483 C.ar    1  UNL1       -0.0071
      9 C         142.1375  136.7213  155.7552 C.ar    1  UNL1       -0.0065
     10 C         143.1633  137.2321  154.7874 C.ar    1  UNL1       -0.0029
     11 C         143.9526  138.4655  155.1127 C.ar    1  UNL1        0.0006
     12 C         143.7161  139.1879  156.4057 C.ar    1  UNL1        0.0117
     13 C         142.7094  143.3949  162.1201 C.ar    1  UNL1        0.0710
     14 C         142.5862  142.7721  160.7610 C.ar    1  UNL1        0.0165
     15 C         143.9699  142.5153  160.2418 C.ar    1  UNL1        0.0233
     16 C         144.9481  142.9794  161.2799 C.ar    1  UNL1        0.0373
     17 S         144.1691  143.5231  162.4407 S.2     1  UNL1       -0.0780
     18 C         140.4354  144.2366  163.8866 C.1     1  UNL1       -0.0388
     19 C         141.5724  143.8158  163.0033 C.1     1  UNL1       -0.0543
     20 C         139.2984  144.6574  164.7699 C.3     1  UNL1        0.2814
     21 O         138.0602  143.8145  164.8513 O.3     1  UNL1       -0.4612
     22 C         137.9184  138.4290  162.2101 C.3     1  UNL1        0.0307
     23 C         137.9539  139.7753  162.8704 C.ar    1  UNL1       -0.0256
     24 C         137.5897  141.0033  162.0898 C.ar    1  UNL1       -0.0015
     25 C         137.6252  142.3497  162.7501 C.ar    1  UNL1        0.0366
     26 C         138.0248  142.4681  164.1910 C.ar    1  UNL1        0.1397
     27 C         138.3889  141.2401  164.9717 C.ar    1  UNL1        0.0324
     28 C         138.3535  139.8937  164.3114 C.ar    1  UNL1       -0.0228
     29 C         138.7176  138.6657  165.0920 C.3     1  UNL1        0.0308
     30 C         141.3482  135.4878  155.4299 C.3     1  UNL1        0.0992
     31 N         141.8799  134.1364  155.8053 N.3     1  UNL1       -0.2665
     32 C         142.9972  134.0197  156.7994 C.3     1  UNL1        0.0899
     33 C         143.5289  132.6683  157.1748 C.3     1  UNL1        0.0897
     34 N         142.9435  131.4336  156.5560 N.3     1  UNL1       -0.2691
     35 C         143.4753  130.0822  156.9313 C.3     1  UNL1        0.0897
     36 C         141.8263  131.5504  155.5619 C.3     1  UNL1        0.0897
     37 C         141.2946  132.9018  155.1865 C.3     1  UNL1        0.0899
@<TRIPOS>BOND
     1    22    23    1
     2    23    24   ar
     3    24    25   ar
     4    25    26   ar
     5    26    21    1
     6    21    20    1
     7    20    18    1
     8    18    19    3
     9    19    13    1
    10    13    14   ar
    11    14    15   ar
    12    15     1    1
    13     1     2    2
    14     2     3    1
    15     3     4    2
    16     4     5    1
    17     5     6    1
    18     6     7    1
    19     7     8   ar
    20     8     9   ar
    21     9    30    1
    22    30    31    1
    23    31    32    1
    24    32    33    1
    25    33    34    1
    26    34    35    1
    27    34    36    1
    28    36    37    1
    29     9    10   ar
    30    10    11   ar
    31    11    12   ar
    32    15    16   ar
    33    16    17   ar
    34    26    27   ar
    35    27    28   ar
    36    28    29    1
    37    28    23   ar
    38    17    13   ar
    39     5     1    1
    40    12     7   ar
    41    12     4    1
    42    37    31    1
@<TRIPOS>MOLECULE
*****
 37 42 0 0 0
SMALL
GASTEIGER

@<TRIPOS>ATOM
      1 C         142.0539  137.3293  156.9859 C.2     1  UNL1        0.0866
      2 N         141.0040  137.6987  155.9803 N.2     1  UNL1       -0.1523
      3 N         140.6877  136.4766  155.1701 N.2     1  UNL1       -0.1523
      4 C         141.5423  135.3518  155.6750 C.2     1  UNL1        0.0858
      5 C         142.3866  135.8788  156.7972 C.3     1  UNL1        0.0883
      6 C         143.2410  134.7541  157.3021 C.3     1  UNL1        0.0384
      7 C         142.9248  133.5320  156.4919 C.ar    1  UNL1       -0.0205
      8 C         143.4573  132.1305  156.5399 C.ar    1  UNL1       -0.0071
      9 C         142.9398  131.0985  155.5823 C.ar    1  UNL1       -0.0065
     10 C         141.8899  131.4678  154.5767 C.ar    1  UNL1       -0.0029
     11 C         141.3575  132.8693  154.5287 C.ar    1  UNL1        0.0006
     12 C         141.8749  133.9014  155.4863 C.ar    1  UNL1        0.0117
     13 C         143.5182  139.1374  160.0927 C.ar    1  UNL1        0.0710
     14 C         142.8856  137.9374  159.4524 C.ar    1  UNL1        0.0165
     15 C         142.6641  138.2488  158.0019 C.ar    1  UNL1        0.0233
     16 C         143.1598  139.6412  157.7457 C.ar    1  UNL1        0.0373
     17 S         143.6877  140.1903  159.0379 S.2     1  UNL1       -0.0780
     18 C         144.3063  139.3873  162.9766 C.1     1  UNL1       -0.0388
     19 C         143.9123  139.2623  161.5347 C.1     1  UNL1       -0.0543
     20 C         144.7003  139.5123  164.4185 C.3     1  UNL1        0.2814
     21 O         144.0191  138.6719  165.4577 O.3     1  UNL1       -0.4612
     22 C         138.0738  139.0314  166.1818 C.3     1  UNL1        0.0307
     23 C         139.5602  138.9416  166.0008 C.ar    1  UNL1       -0.0256
     24 C         140.1375  137.9811  165.0038 C.ar    1  UNL1       -0.0015
     25 C         141.6239  137.8912  164.8227 C.ar    1  UNL1        0.0366
     26 C         142.5328  138.7618  165.6387 C.ar    1  UNL1        0.1397
     27 C         141.9554  139.7223  166.6358 C.ar    1  UNL1        0.0324
     28 C         140.4691  139.8122  166.8168 C.ar    1  UNL1       -0.0228
     29 C         139.8917  140.7727  167.8139 C.3     1  UNL1        0.0308
     30 C         143.4723  129.6969  155.6303 C.3     1  UNL1        0.0992
     31 N         143.3159  128.8775  156.8769 N.3     1  UNL1       -0.2665
     32 C         144.1999  129.1368  158.0607 C.3     1  UNL1        0.0899
     33 C         144.0435  128.3174  159.3073 C.3     1  UNL1        0.0897
     34 N         143.0030  127.2386  159.3702 N.3     1  UNL1       -0.2691
     35 C         142.8466  126.4192  160.6168 C.3     1  UNL1        0.0897
     36 C         142.1191  126.9794  158.1864 C.3     1  UNL1        0.0897
     37 C         142.2755  127.7988  156.9398 C.3     1  UNL1        0.0899
@<TRIPOS>BOND
     1    22    23    1
     2    23    24   ar
     3    24    25   ar
     4    25    26   ar
     5    26    21    1
     6    21    20    1
     7    20    18    1
     8    18    19    3
     9    19    13    1
    10    13    14   ar
    11    14    15   ar
    12    15     1    1
    13     1     2    2
    14     2     3    1
    15     3     4    2
    16     4     5    1
    17     5     6    1
    18     6     7    1
    19     7     8   ar
    20     8     9   ar
    21     9    30    1
    22    30    31    1
    23    31    32    1
    24    32    33    1
    25    33    34    1
    26    34    35    1
    27    34    36    1
    28    36    37    1
    29     9    10   ar
    30    10    11   ar
    31    11    12   ar
    32    15    16   ar
    33    16    17   ar
    34    26    27   ar
    35    27    28   ar
    36    28    29    1
    37    28    23   ar
    38    17    13   ar
    39     5     1    1
    40    12     7   ar
    41    12     4    1
    42    37    31    1
@<TRIPOS>MOLECULE
*****
 37 42 0 0 0
SMALL
GASTEIGER

@<TRIPOS>ATOM
      1 C         138.2915  140.2226  158.7239 C.2     1  UNL1        0.0866
      2 N         137.3509  140.7054  157.6598 N.2     1  UNL1       -0.1523
      3 N         137.7391  140.0517  156.3666 N.2     1  UNL1       -0.1523
      4 C         138.9195  139.1649  156.6316 C.2     1  UNL1        0.0858
      5 C         139.2609  139.2705  158.0884 C.3     1  UNL1        0.0883
      6 C         140.4413  138.3837  158.3534 C.3     1  UNL1        0.0384
      7 C         140.8295  137.7300  157.0603 C.ar    1  UNL1       -0.0205
      8 C         141.9178  136.7575  156.7144 C.ar    1  UNL1       -0.0071
      9 C         142.0656  136.2678  155.3043 C.ar    1  UNL1       -0.0065
     10 C         141.1251  136.7506  154.2402 C.ar    1  UNL1       -0.0029
     11 C         140.0368  137.7231  154.5861 C.ar    1  UNL1        0.0006
     12 C         139.8889  138.2128  155.9962 C.ar    1  UNL1        0.0117
     13 C         138.1986  140.5135  162.5933 C.ar    1  UNL1        0.0710
     14 C         138.2032  139.6873  161.3412 C.ar    1  UNL1        0.0165
     15 C         138.2669  140.6218  160.1696 C.ar    1  UNL1        0.0233
     16 C         138.3018  142.0254  160.6974 C.ar    1  UNL1        0.0373
     17 S         138.2596  141.9585  162.1953 S.2     1  UNL1       -0.0780
     18 C         138.0872  139.4607  165.4003 C.1     1  UNL1       -0.0388
     19 C         138.1429  139.9871  163.9968 C.1     1  UNL1       -0.0543
     20 C         138.0316  138.9343  166.8038 C.3     1  UNL1        0.2814
     21 O         139.1015  139.3060  167.7872 O.3     1  UNL1       -0.4612
     22 C         143.7385  142.6888  166.0395 C.3     1  UNL1        0.0307
     23 C         142.5793  141.8431  166.4764 C.ar    1  UNL1       -0.0256
     24 C         141.4761  142.4472  167.2937 C.ar    1  UNL1       -0.0015
     25 C         140.3169  141.6016  167.7306 C.ar    1  UNL1        0.0366
     26 C         140.2607  140.1517  167.3503 C.ar    1  UNL1        0.1397
     27 C         141.3639  139.5475  166.5329 C.ar    1  UNL1        0.0324
     28 C         142.5232  140.3931  166.0960 C.ar    1  UNL1       -0.0228
     29 C         143.6263  139.7890  165.2787 C.3     1  UNL1        0.0308
     30 C         143.1540  135.2952  154.9583 C.3     1  UNL1        0.0992
     31 N         143.2063  133.9568  155.6335 N.3     1  UNL1       -0.2665
     32 C         142.3138  132.8455  155.1658 C.3     1  UNL1        0.0899
     33 C         142.3661  131.5071  155.8410 C.3     1  UNL1        0.0897
     34 N         143.3109  131.2799  156.9838 N.3     1  UNL1       -0.2691
     35 C         143.3632  129.9415  157.6590 C.3     1  UNL1        0.0897
     36 C         144.2033  132.3912  157.4513 C.3     1  UNL1        0.0897
     37 C         144.1510  133.7296  156.7762 C.3     1  UNL1        0.0899
@<TRIPOS>BOND
     1    22    23    1
     2    23    24   ar
     3    24    25   ar
     4    25    26   ar
     5    26    21    1
     6    21    20    1
     7    20    18    1
     8    18    19    3
     9    19    13    1
    10    13    14   ar
    11    14    15   ar
    12    15     1    1
    13     1     2    2
    14     2     3    1
    15     3     4    2
    16     4     5    1
    17     5     6    1
    18     6     7    1
    19     7     8   ar
    20     8     9   ar
    21     9    30    1
    22    30    31    1
    23    31    32    1
    24    32    33    1
    25    33    34    1
    26    34    35    1
    27    34    36    1
    28    36    37    1
    29     9    10   ar
    30    10    11   ar
    31    11    12   ar
    32    15    16   ar
    33    16    17   ar
    34    26    27   ar
    35    27    28   ar
    36    28    29    1
    37    28    23   ar
    38    17    13   ar
    39     5     1    1
    40    12     7   ar
    41    12     4    1
    42    37    31    1
@<TRIPOS>MOLECULE
*****
 37 42 0 0 0
SMALL
GASTEIGER

@<TRIPOS>ATOM
      1 C         142.9984  138.6332  158.3789 C.2     1  UNL1        0.0866
      2 N         143.9297  139.7511  158.0141 N.2     1  UNL1       -0.1523
      3 N         144.4503  140.3542  159.2850 N.2     1  UNL1       -0.1523
      4 C         143.8408  139.6090  160.4354 C.2     1  UNL1        0.0858
      5 C         142.9435  138.5454  159.8753 C.3     1  UNL1        0.0883
      6 C         142.3340  137.8003  161.0257 C.3     1  UNL1        0.0384
      7 C         142.8546  138.4033  162.2966 C.ar    1  UNL1       -0.0205
      8 C         142.6010  138.0789  163.7390 C.ar    1  UNL1       -0.0071
      9 C         143.2787  138.8724  164.8165 C.ar    1  UNL1       -0.0065
     10 C         144.2099  139.9903  164.4517 C.ar    1  UNL1       -0.0029
     11 C         144.4635  140.3147  163.0093 C.ar    1  UNL1        0.0006
     12 C         143.7859  139.5212  161.9318 C.ar    1  UNL1        0.0117
     13 C         141.7263  136.0020  155.8247 C.ar    1  UNL1        0.0710
     14 C         142.8188  136.5841  156.6720 C.ar    1  UNL1        0.0165
     15 C         142.2530  137.7570  157.4164 C.ar    1  UNL1        0.0233
     16 C         140.8108  137.8998  157.0292 C.ar    1  UNL1        0.0373
     17 S         140.4854  136.8152  156.0455 S.2     1  UNL1       -0.0780
     18 C         141.9790  133.6283  154.0077 C.1     1  UNL1       -0.0388
     19 C         141.8527  134.8151  154.9162 C.1     1  UNL1       -0.0543
     20 C         142.1054  132.4414  153.0992 C.3     1  UNL1        0.2814
     21 O         143.2139  131.4524  153.3071 O.3     1  UNL1       -0.4612
     22 C         144.3503  129.3314  158.8035 C.3     1  UNL1        0.0307
     23 C         144.0662  129.8616  157.4294 C.ar    1  UNL1       -0.0256
     24 C         143.2433  129.0547  156.4694 C.ar    1  UNL1       -0.0015
     25 C         142.9592  129.5849  155.0953 C.ar    1  UNL1        0.0366
     26 C         143.4980  130.9221  154.6812 C.ar    1  UNL1        0.1397
     27 C         144.3210  131.7292  155.6412 C.ar    1  UNL1        0.0324
     28 C         144.6050  131.1989  157.0153 C.ar    1  UNL1       -0.0228
     29 C         145.4279  132.0059  157.9753 C.3     1  UNL1        0.0308
     30 C         143.0251  138.5481  166.2589 C.3     1  UNL1        0.0992
     31 N         142.2943  139.5262  167.1303 N.3     1  UNL1       -0.2665
     32 C         142.6201  139.6178  168.5917 C.3     1  UNL1        0.0899
     33 C         141.8893  140.5959  169.4631 C.3     1  UNL1        0.0897
     34 N         140.8328  141.4824  168.8731 N.3     1  UNL1       -0.2691
     35 C         140.1021  142.4605  169.7445 C.3     1  UNL1        0.0897
     36 C         140.5071  141.3907  167.4118 C.3     1  UNL1        0.0897
     37 C         141.2378  140.4126  166.5404 C.3     1  UNL1        0.0899
@<TRIPOS>BOND
     1    22    23    1
     2    23    24   ar
     3    24    25   ar
     4    25    26   ar
     5    26    21    1
     6    21    20    1
     7    20    18    1
     8    18    19    3
     9    19    13    1
    10    13    14   ar
    11    14    15   ar
    12    15     1    1
    13     1     2    2
    14     2     3    1
    15     3     4    2
    16     4     5    1
    17     5     6    1
    18     6     7    1
    19     7     8   ar
    20     8     9   ar
    21     9    30    1
    22    30    31    1
    23    31    32    1
    24    32    33    1
    25    33    34    1
    26    34    35    1
    27    34    36    1
    28    36    37    1
    29     9    10   ar
    30    10    11   ar
    31    11    12   ar
    32    15    16   ar
    33    16    17   ar
    34    26    27   ar
    35    27    28   ar
    36    28    29    1
    37    28    23   ar
    38    17    13   ar
    39     5     1    1
    40    12     7   ar
    41    12     4    1
    42    37    31    1
@<TRIPOS>MOLECULE
*****
 37 42 0 0 0
SMALL
GASTEIGER

@<TRIPOS>ATOM
      1 C         141.5855  138.2503  157.2121 C.2     1  UNL1        0.0866
      2 N         140.7442  138.5268  156.0014 N.2     1  UNL1       -0.1523
      3 N         140.8497  137.3447  155.0839 N.2     1  UNL1       -0.1523
      4 C         141.7561  136.3377  155.7277 C.2     1  UNL1        0.0858
      5 C         142.2109  136.8975  157.0429 C.3     1  UNL1        0.0883
      6 C         143.1173  135.8905  157.6867 C.3     1  UNL1        0.0384
      7 C         143.2228  134.7084  156.7693 C.ar    1  UNL1       -0.0205
      8 C         143.9761  133.4161  156.8799 C.ar    1  UNL1       -0.0071
      9 C         143.8882  132.4002  155.7799 C.ar    1  UNL1       -0.0065
     10 C         143.0470  132.6766  154.5691 C.ar    1  UNL1       -0.0029
     11 C         142.2936  133.9690  154.4584 C.ar    1  UNL1        0.0006
     12 C         142.3815  134.9848  155.5585 C.ar    1  UNL1        0.0117
     13 C         142.7531  140.3236  160.2787 C.ar    1  UNL1        0.0710
     14 C         143.0119  139.2973  159.2157 C.ar    1  UNL1        0.0165
     15 C         141.7691  139.1660  158.3859 C.ar    1  UNL1        0.0233
     16 C         140.7424  140.1111  158.9360 C.ar    1  UNL1        0.0373
     17 S         141.3505  140.8265  160.1058 S.2     1  UNL1       -0.0780
     18 C         144.6991  141.2139  162.3812 C.1     1  UNL1       -0.0388
     19 C         143.7261  140.7687  161.3299 C.1     1  UNL1       -0.0543
     20 C         145.6721  141.6590  163.4324 C.3     1  UNL1        0.2814
     21 O         145.2370  142.6211  164.4979 O.3     1  UNL1       -0.4612
     22 C         139.6537  144.8178  164.4579 C.3     1  UNL1        0.0307
     23 C         141.0495  144.2686  164.4679 C.ar    1  UNL1       -0.0256
     24 C         142.1470  144.9965  163.7498 C.ar    1  UNL1       -0.0015
     25 C         143.5429  144.4473  163.7598 C.ar    1  UNL1        0.0366
     26 C         143.8412  143.1703  164.4879 C.ar    1  UNL1        0.1397
     27 C         142.7437  142.4424  165.2060 C.ar    1  UNL1        0.0324
     28 C         141.3479  142.9915  165.1960 C.ar    1  UNL1       -0.0228
     29 C         140.2504  142.2637  165.9141 C.3     1  UNL1        0.0308
     30 C         144.6416  131.1078  155.8905 C.3     1  UNL1        0.0992
     31 N         144.1582  130.0352  156.8210 N.3     1  UNL1       -0.2665
     32 C         144.6513  129.9926  158.2371 C.3     1  UNL1        0.0899
     33 C         144.1679  128.9200  159.1676 C.3     1  UNL1        0.0897
     34 N         143.1914  127.8900  158.6820 N.3     1  UNL1       -0.2691
     35 C         142.7080  126.8174  159.6125 C.3     1  UNL1        0.0897
     36 C         142.6984  127.9326  157.2660 C.3     1  UNL1        0.0897
     37 C         143.1818  129.0052  156.3355 C.3     1  UNL1        0.0899
@<TRIPOS>BOND
     1    22    23    1
     2    23    24   ar
     3    24    25   ar
     4    25    26   ar
     5    26    21    1
     6    21    20    1
     7    20    18    1
     8    18    19    3
     9    19    13    1
    10    13    14   ar
    11    14    15   ar
    12    15     1    1
    13     1     2    2
    14     2     3    1
    15     3     4    2
    16     4     5    1
    17     5     6    1
    18     6     7    1
    19     7     8   ar
    20     8     9   ar
    21     9    30    1
    22    30    31    1
    23    31    32    1
    24    32    33    1
    25    33    34    1
    26    34    35    1
    27    34    36    1
    28    36    37    1
    29     9    10   ar
    30    10    11   ar
    31    11    12   ar
    32    15    16   ar
    33    16    17   ar
    34    26    27   ar
    35    27    28   ar
    36    28    29    1
    37    28    23   ar
    38    17    13   ar
    39     5     1    1
    40    12     7   ar
    41    12     4    1
    42    37    31    1
@<TRIPOS>MOLECULE
*****
 37 42 0 0 0
SMALL
GASTEIGER

@<TRIPOS>ATOM
      1 C         144.2342  142.3686  160.2675 C.2     1  UNL1        0.0866
      2 N         145.1833  143.0845  159.3527 N.2     1  UNL1       -0.1523
      3 N         145.2091  142.3504  158.0449 N.2     1  UNL1       -0.1523
      4 C         144.2760  141.1807  158.1514 C.2     1  UNL1        0.0858
      5 C         143.6735  141.1920  159.5250 C.3     1  UNL1        0.0883
      6 C         142.7404  140.0224  159.6315 C.3     1  UNL1        0.0384
      7 C         142.7662  139.2883  158.3236 C.ar    1  UNL1       -0.0205
      8 C         142.0481  138.0604  157.8476 C.ar    1  UNL1       -0.0071
      9 C         142.2791  137.5485  156.4567 C.ar    1  UNL1       -0.0065
     10 C         143.2281  138.2644  155.5419 C.ar    1  UNL1       -0.0029
     11 C         143.9462  139.4922  156.0180 C.ar    1  UNL1        0.0006
     12 C         143.7152  140.0042  157.4089 C.ar    1  UNL1        0.0117
     13 C         142.9480  142.7646  163.9081 C.ar    1  UNL1        0.0710
     14 C         142.9856  142.0219  162.6054 C.ar    1  UNL1        0.0165
     15 C         143.9039  142.7604  161.6772 C.ar    1  UNL1        0.0233
     16 C         144.4338  143.9595  162.4063 C.ar    1  UNL1        0.0373
     17 S         143.8430  143.9621  163.7850 S.2     1  UNL1       -0.0780
     18 C         141.3613  141.9910  166.3338 C.1     1  UNL1       -0.0388
     19 C         142.1546  142.3778  165.1210 C.1     1  UNL1       -0.0543
     20 C         140.5679  141.6041  167.5466 C.3     1  UNL1        0.2814
     21 O         139.4093  140.6604  167.4154 O.3     1  UNL1       -0.4612
     22 C         138.1764  138.1437  162.1101 C.3     1  UNL1        0.0307
     23 C         138.4846  138.7729  163.4364 C.ar    1  UNL1       -0.0256
     24 C         139.1630  137.9711  164.5073 C.ar    1  UNL1       -0.0015
     25 C         139.4712  138.6003  165.8337 C.ar    1  UNL1        0.0366
     26 C         139.1011  140.0312  166.0890 C.ar    1  UNL1        0.1397
     27 C         138.4227  140.8331  165.0181 C.ar    1  UNL1        0.0324
     28 C         138.1145  140.2039  163.6917 C.ar    1  UNL1       -0.0228
     29 C         137.4362  141.0057  162.6208 C.3     1  UNL1        0.0308
     30 C         141.5610  136.3205  155.9806 C.3     1  UNL1        0.0992
     31 N         142.1505  134.9636  156.2282 N.3     1  UNL1       -0.2665
     32 C         143.2725  134.8012  157.2104 C.3     1  UNL1        0.0899
     33 C         143.8620  133.4443  157.4580 C.3     1  UNL1        0.0897
     34 N         143.3294  132.2498  156.7233 N.3     1  UNL1       -0.2691
     35 C         143.9189  130.8929  156.9709 C.3     1  UNL1        0.0897
     36 C         142.2074  132.4122  155.7412 C.3     1  UNL1        0.0897
     37 C         141.6179  133.7692  155.4936 C.3     1  UNL1        0.0899
@<TRIPOS>BOND
     1    22    23    1
     2    23    24   ar
     3    24    25   ar
     4    25    26   ar
     5    26    21    1
     6    21    20    1
     7    20    18    1
     8    18    19    3
     9    19    13    1
    10    13    14   ar
    11    14    15   ar
    12    15     1    1
    13     1     2    2
    14     2     3    1
    15     3     4    2
    16     4     5    1
    17     5     6    1
    18     6     7    1
    19     7     8   ar
    20     8     9   ar
    21     9    30    1
    22    30    31    1
    23    31    32    1
    24    32    33    1
    25    33    34    1
    26    34    35    1
    27    34    36    1
    28    36    37    1
    29     9    10   ar
    30    10    11   ar
    31    11    12   ar
    32    15    16   ar
    33    16    17   ar
    34    26    27   ar
    35    27    28   ar
    36    28    29    1
    37    28    23   ar
    38    17    13   ar
    39     5     1    1
    40    12     7   ar
    41    12     4    1
    42    37    31    1
@<TRIPOS>MOLECULE
*****
 37 42 0 0 0
SMALL
GASTEIGER

@<TRIPOS>ATOM
      1 C         140.5071  144.5294  158.9243 C.2     1  UNL1        0.0866
      2 N         140.8929  145.7365  158.1217 N.2     1  UNL1       -0.1523
      3 N         140.1148  145.7088  156.8396 N.2     1  UNL1       -0.1523
      4 C         139.2481  144.4845  156.8498 C.2     1  UNL1        0.0858
      5 C         139.4906  143.7556  158.1382 C.3     1  UNL1        0.0883
      6 C         138.6239  142.5314  158.1484 C.3     1  UNL1        0.0384
      7 C         137.8458  142.5036  156.8663 C.ar    1  UNL1       -0.0205
      8 C         136.8358  141.5351  156.3260 C.ar    1  UNL1       -0.0071
      9 C         136.2117  141.7737  154.9830 C.ar    1  UNL1       -0.0065
     10 C         136.5975  142.9808  154.1805 C.ar    1  UNL1       -0.0029
     11 C         137.6074  143.9493  154.7208 C.ar    1  UNL1        0.0006
     12 C         138.2316  143.7107  156.0637 C.ar    1  UNL1        0.0117
     13 C         142.2008  142.9896  162.0590 C.ar    1  UNL1        0.0710
     14 C         141.8954  142.9669  160.5905 C.ar    1  UNL1        0.0165
     15 C         141.0436  144.1608  160.2757 C.ar    1  UNL1        0.0233
     16 C         140.8225  144.9214  161.5496 C.ar    1  UNL1        0.0373
     17 S         141.5377  144.1975  162.6517 S.2     1  UNL1       -0.0780
     18 C         143.8484  140.9732  163.5488 C.1     1  UNL1       -0.0388
     19 C         143.0246  141.9814  162.8039 C.1     1  UNL1       -0.0543
     20 C         144.6721  139.9650  164.2937 C.3     1  UNL1        0.2814
     21 O         143.9998  138.8492  165.0374 O.3     1  UNL1       -0.4612
     22 C         138.0999  139.0824  166.1038 C.3     1  UNL1        0.0307
     23 C         139.5749  139.0241  165.8372 C.ar    1  UNL1       -0.0256
     24 C         140.1000  138.1922  164.7050 C.ar    1  UNL1       -0.0015
     25 C         141.5750  138.1339  164.4384 C.ar    1  UNL1        0.0366
     26 C         142.5248  138.9075  165.3040 C.ar    1  UNL1        0.1397
     27 C         141.9996  139.7395  166.4363 C.ar    1  UNL1        0.0324
     28 C         140.5246  139.7978  166.7029 C.ar    1  UNL1       -0.0228
     29 C         139.9994  140.6298  167.8351 C.3     1  UNL1        0.0308
     30 C         135.2017  140.8052  154.4426 C.3     1  UNL1        0.0992
     31 N         133.9938  140.4486  155.2575 N.3     1  UNL1       -0.2665
     32 C         132.8050  141.3632  155.2761 C.3     1  UNL1        0.0899
     33 C         131.5971  141.0065  156.0910 C.3     1  UNL1        0.0897
     34 N         131.5781  139.7353  156.8871 N.3     1  UNL1       -0.2691
     35 C         130.3703  139.3787  157.7019 C.3     1  UNL1        0.0897
     36 C         132.7669  138.8208  156.8684 C.3     1  UNL1        0.0897
     37 C         133.9748  139.1775  156.0536 C.3     1  UNL1        0.0899
@<TRIPOS>BOND
     1    22    23    1
     2    23    24   ar
     3    24    25   ar
     4    25    26   ar
     5    26    21    1
     6    21    20    1
     7    20    18    1
     8    18    19    3
     9    19    13    1
    10    13    14   ar
    11    14    15   ar
    12    15     1    1
    13     1     2    2
    14     2     3    1
    15     3     4    2
    16     4     5    1
    17     5     6    1
    18     6     7    1
    19     7     8   ar
    20     8     9   ar
    21     9    30    1
    22    30    31    1
    23    31    32    1
    24    32    33    1
    25    33    34    1
    26    34    35    1
    27    34    36    1
    28    36    37    1
    29     9    10   ar
    30    10    11   ar
    31    11    12   ar
    32    15    16   ar
    33    16    17   ar
    34    26    27   ar
    35    27    28   ar
    36    28    29    1
    37    28    23   ar
    38    17    13   ar
    39     5     1    1
    40    12     7   ar
    41    12     4    1
    42    37    31    1
@<TRIPOS>MOLECULE
*****
 37 42 0 0 0
SMALL
GASTEIGER

@<TRIPOS>ATOM
      1 C         138.5376  141.3318  158.7294 C.2     1  UNL1        0.0866
      2 N         138.3965  142.8251  158.7238 N.2     1  UNL1       -0.1523
      3 N         138.3343  143.2902  160.1486 N.2     1  UNL1       -0.1523
      4 C         138.4370  142.0842  161.0347 C.2     1  UNL1        0.0858
      5 C         138.5626  140.8739  160.1576 C.3     1  UNL1        0.0883
      6 C         138.6653  139.6680  161.0437 C.3     1  UNL1        0.0384
      7 C         138.6031  140.1330  162.4685 C.ar    1  UNL1       -0.0205
      8 C         138.6568  139.3895  163.7701 C.ar    1  UNL1       -0.0071
      9 C         138.5693  140.1394  165.0662 C.ar    1  UNL1       -0.0065
     10 C         138.4281  141.6328  165.0607 C.ar    1  UNL1       -0.0029
     11 C         138.3745  142.3762  163.7590 C.ar    1  UNL1        0.0006
     12 C         138.4620  141.6263  162.4629 C.ar    1  UNL1        0.0117
     13 C         139.2551  138.6396  156.0270 C.ar    1  UNL1        0.0710
     14 C         139.4496  139.1955  157.4066 C.ar    1  UNL1        0.0165
     15 C         138.6364  140.4510  157.5193 C.ar    1  UNL1        0.0233
     16 C         137.9394  140.6710  156.2094 C.ar    1  UNL1        0.0373
     17 S         138.3218  139.5515  155.2871 S.2     1  UNL1       -0.0780
     18 C         140.5121  136.1425  154.9388 C.1     1  UNL1       -0.0388
     19 C         139.8836  137.3910  155.4829 C.1     1  UNL1       -0.0543
     20 C         141.1407  134.8939  154.3947 C.3     1  UNL1        0.2814
     21 O         142.6331  134.7430  154.3974 O.3     1  UNL1       -0.4612
     22 C         145.2489  130.8603  158.1502 C.3     1  UNL1        0.0307
     23 C         144.5949  131.8310  157.2120 C.ar    1  UNL1       -0.0256
     24 C         144.3135  133.2343  157.6609 C.ar    1  UNL1       -0.0015
     25 C         143.6596  134.2049  156.7227 C.ar    1  UNL1        0.0366
     26 C         143.2870  133.7723  155.3356 C.ar    1  UNL1        0.1397
     27 C         143.5684  132.3689  154.8867 C.ar    1  UNL1        0.0324
     28 C         144.2224  131.3983  155.8249 C.ar    1  UNL1       -0.0228
     29 C         144.5038  129.9950  155.3760 C.3     1  UNL1        0.0308
     30 C         138.6229  139.3960  166.3680 C.3     1  UNL1        0.0992
     31 N         139.7077  139.6968  167.3593 N.3     1  UNL1       -0.2665
     32 C         141.1471  139.5988  166.9488 C.3     1  UNL1        0.0899
     33 C         142.2319  139.8997  167.9401 C.3     1  UNL1        0.0897
     34 N         141.8772  140.2985  169.3420 N.3     1  UNL1       -0.2691
     35 C         142.9620  140.5994  170.3333 C.3     1  UNL1        0.0897
     36 C         140.4379  140.3965  169.7525 C.3     1  UNL1        0.0897
     37 C         139.3531  140.0957  168.7611 C.3     1  UNL1        0.0899
@<TRIPOS>BOND
     1    22    23    1
     2    23    24   ar
     3    24    25   ar
     4    25    26   ar
     5    26    21    1
     6    21    20    1
     7    20    18    1
     8    18    19    3
     9    19    13    1
    10    13    14   ar
    11    14    15   ar
    12    15     1    1
    13     1     2    2
    14     2     3    1
    15     3     4    2
    16     4     5    1
    17     5     6    1
    18     6     7    1
    19     7     8   ar
    20     8     9   ar
    21     9    30    1
    22    30    31    1
    23    31    32    1
    24    32    33    1
    25    33    34    1
    26    34    35    1
    27    34    36    1
    28    36    37    1
    29     9    10   ar
    30    10    11   ar
    31    11    12   ar
    32    15    16   ar
    33    16    17   ar
    34    26    27   ar
    35    27    28   ar
    36    28    29    1
    37    28    23   ar
    38    17    13   ar
    39     5     1    1
    40    12     7   ar
    41    12     4    1
    42    37    31    1
@<TRIPOS>MOLECULE
*****
 37 42 0 0 0
SMALL
GASTEIGER

@<TRIPOS>ATOM
      1 C         140.4870  143.1840  160.0981 C.2     1  UNL1        0.0866
      2 N         141.4005  144.1165  159.3592 N.2     1  UNL1       -0.1523
      3 N         140.9720  144.1430  157.9219 N.2     1  UNL1       -0.1523
      4 C         139.7936  143.2269  157.7726 C.2     1  UNL1        0.0858
      5 C         139.4939  142.6342  159.1175 C.3     1  UNL1        0.0883
      6 C         138.3155  141.7182  158.9682 C.3     1  UNL1        0.0384
      7 C         137.8870  141.7447  157.5309 C.ar    1  UNL1       -0.0205
      8 C         136.7830  141.0402  156.7996 C.ar    1  UNL1       -0.0071
      9 C         136.5925  141.2682  155.3294 C.ar    1  UNL1       -0.0065
     10 C         137.5060  142.2007  154.5904 C.ar    1  UNL1       -0.0029
     11 C         138.6100  142.9052  155.3218 C.ar    1  UNL1        0.0006
     12 C         138.8005  142.6772  156.7920 C.ar    1  UNL1        0.0117
     13 C         140.1321  141.8315  163.7190 C.ar    1  UNL1        0.0710
     14 C         139.7421  141.8162  162.2705 C.ar    1  UNL1        0.0165
     15 C         140.5547  142.8584  161.5608 C.ar    1  UNL1        0.0233
     16 C         141.4467  143.5178  162.5705 C.ar    1  UNL1        0.0373
     17 S         141.1855  142.8831  163.9043 S.2     1  UNL1       -0.0780
     18 C         139.0032  140.0684  165.8677 C.1     1  UNL1       -0.0388
     19 C         139.5676  140.9500  164.7933 C.1     1  UNL1       -0.0543
     20 C         138.4387  139.1869  166.9421 C.3     1  UNL1        0.2814
     21 O         138.8047  139.4254  168.3771 O.3     1  UNL1       -0.4612
     22 C         143.8008  142.4576  169.7350 C.3     1  UNL1        0.0307
     23 C         142.5518  141.6996  169.3955 C.ar    1  UNL1       -0.0256
     24 C         142.6434  140.2883  168.8958 C.ar    1  UNL1       -0.0015
     25 C         141.3944  139.5302  168.5563 C.ar    1  UNL1        0.0366
     26 C         140.0537  140.1834  168.7166 C.ar    1  UNL1        0.1397
     27 C         139.9620  141.5948  169.2164 C.ar    1  UNL1        0.0324
     28 C         141.2110  142.3529  169.5558 C.ar    1  UNL1       -0.0228
     29 C         141.1193  143.7642  170.0556 C.3     1  UNL1        0.0308
     30 C         135.4885  140.5638  154.5980 C.3     1  UNL1        0.0992
     31 N         134.1707  140.3290  155.2750 N.3     1  UNL1       -0.2665
     32 C         133.1033  141.3817  155.2241 C.3     1  UNL1        0.0899
     33 C         131.7855  141.1469  155.9012 C.3     1  UNL1        0.0897
     34 N         131.5352  139.8595  156.6292 N.3     1  UNL1       -0.2691
     35 C         130.2175  139.6247  157.3063 C.3     1  UNL1        0.0897
     36 C         132.6026  138.8069  156.6801 C.3     1  UNL1        0.0897
     37 C         133.9204  139.0416  156.0030 C.3     1  UNL1        0.0899
@<TRIPOS>BOND
     1    22    23    1
     2    23    24   ar
     3    24    25   ar
     4    25    26   ar
     5    26    21    1
     6    21    20    1
     7    20    18    1
     8    18    19    3
     9    19    13    1
    10    13    14   ar
    11    14    15   ar
    12    15     1    1
    13     1     2    2
    14     2     3    1
    15     3     4    2
    16     4     5    1
    17     5     6    1
    18     6     7    1
    19     7     8   ar
    20     8     9   ar
    21     9    30    1
    22    30    31    1
    23    31    32    1
    24    32    33    1
    25    33    34    1
    26    34    35    1
    27    34    36    1
    28    36    37    1
    29     9    10   ar
    30    10    11   ar
    31    11    12   ar
    32    15    16   ar
    33    16    17   ar
    34    26    27   ar
    35    27    28   ar
    36    28    29    1
    37    28    23   ar
    38    17    13   ar
    39     5     1    1
    40    12     7   ar
    41    12     4    1
    42    37    31    1
