@<TRIPOS>MOLECULE
*****
 24 26 0 0 0
SMALL
GASTEIGER

@<TRIPOS>ATOM
      1 C         142.1549  137.6809  161.3651 C.3     1  UNL1        0.0902
      2 N         140.9660  137.9201  162.2479 N.3     1  UNL1       -0.2639
      3 C         139.8797  138.8553  161.8059 C.3     1  UNL1        0.0994
      4 C         139.6027  140.1057  162.5867 C.ar    1  UNL1       -0.0062
      5 C         140.6859  141.1254  162.7786 C.ar    1  UNL1       -0.0032
      6 C         140.4089  142.3758  163.5595 C.ar    1  UNL1       -0.0046
      7 C         139.0488  142.6065  164.1485 C.ar    1  UNL1       -0.0228
      8 C         137.9656  141.5867  163.9565 C.ar    1  UNL1       -0.0046
      9 C         138.2426  140.3363  163.1756 C.ar    1  UNL1       -0.0032
     10 C         138.7718  143.8569  164.9293 C.3     1  UNL1        0.0189
     11 C         139.8014  143.4523  165.9423 C.3     1  UNL1        0.0044
     12 C         137.7422  144.2614  163.9163 C.3     1  UNL1        0.0044
     13 C         138.4949  145.1073  165.7102 C.3     1  UNL1        0.0044
     14 C         140.8634  137.2241  163.5727 C.3     1  UNL1        0.0994
     15 C         140.1917  137.9055  164.7279 C.ar    1  UNL1       -0.0061
     16 C         138.7716  137.5691  165.0744 C.ar    1  UNL1       -0.0029
     17 C         138.0999  138.2506  166.2296 C.ar    1  UNL1       -0.0003
     18 C         138.8483  139.2684  167.0382 C.ar    1  UNL1       -0.0000
     19 C         140.2684  139.6049  166.6917 C.ar    1  UNL1       -0.0003
     20 C         141.0168  140.6227  167.5003 C.ar    1  UNL1       -0.0000
     21 C         142.4369  140.9591  167.1537 C.ar    1  UNL1       -0.0000
     22 C         143.1086  140.2777  165.9985 C.ar    1  UNL1       -0.0000
     23 C         142.3602  139.2599  165.1899 C.ar    1  UNL1       -0.0003
     24 C         140.9402  138.9234  165.5365 C.ar    1  UNL1       -0.0027
@<TRIPOS>BOND
     1     1     2    1
     2     2     3    1
     3     3     4    1
     4     4     5   ar
     5     5     6   ar
     6     6     7   ar
     7     7    10    1
     8    10    11    1
     9    10    12    1
    10    10    13    1
    11     7     8   ar
    12     8     9   ar
    13     2    14    1
    14    14    15    1
    15    15    16   ar
    16    16    17   ar
    17    17    18   ar
    18    18    19   ar
    19    19    20   ar
    20    20    21   ar
    21    21    22   ar
    22    22    23   ar
    23    23    24   ar
    24     9     4   ar
    25    24    15   ar
    26    24    19   ar
@<TRIPOS>MOLECULE
*****
 24 26 0 0 0
SMALL
GASTEIGER

@<TRIPOS>ATOM
      1 C         144.1883  139.8675  161.5732 C.3     1  UNL1        0.0902
      2 N         143.2776  139.4816  162.7008 N.3     1  UNL1       -0.2639
      3 C         143.8479  139.1743  164.0538 C.3     1  UNL1        0.0994
      4 C         143.4275  139.9818  165.2459 C.ar    1  UNL1       -0.0062
      5 C         142.7794  139.3068  166.4183 C.ar    1  UNL1       -0.0032
      6 C         142.3590  140.1143  167.6104 C.ar    1  UNL1       -0.0046
      7 C         142.5867  141.5968  167.6302 C.ar    1  UNL1       -0.0228
      8 C         143.2349  142.2718  166.4579 C.ar    1  UNL1       -0.0046
      9 C         143.6553  141.4642  165.2657 C.ar    1  UNL1       -0.0032
     10 C         142.1663  142.4043  168.8223 C.3     1  UNL1        0.0189
     11 C         140.7990  142.5697  168.2281 C.3     1  UNL1        0.0044
     12 C         143.5336  142.2390  169.4165 C.3     1  UNL1        0.0044
     13 C         141.7460  143.2118  170.0144 C.3     1  UNL1        0.0044
     14 C         141.7968  139.4029  162.4756 C.3     1  UNL1        0.0994
     15 C         140.8647  140.2149  163.3252 C.ar    1  UNL1       -0.0061
     16 C         140.8554  141.7104  163.2098 C.ar    1  UNL1       -0.0029
     17 C         139.9233  142.5225  164.0594 C.ar    1  UNL1       -0.0003
     18 C         139.0006  141.8390  165.0245 C.ar    1  UNL1       -0.0000
     19 C         139.0099  140.3435  165.1400 C.ar    1  UNL1       -0.0003
     20 C         138.0872  139.6600  166.1051 C.ar    1  UNL1       -0.0000
     21 C         138.0965  138.1646  166.2206 C.ar    1  UNL1       -0.0000
     22 C         139.0285  137.3525  165.3709 C.ar    1  UNL1       -0.0000
     23 C         139.9513  138.0359  164.4059 C.ar    1  UNL1       -0.0003
     24 C         139.9419  139.5314  164.2904 C.ar    1  UNL1       -0.0027
@<TRIPOS>BOND
     1     1     2    1
     2     2     3    1
     3     3     4    1
     4     4     5   ar
     5     5     6   ar
     6     6     7   ar
     7     7    10    1
     8    10    11    1
     9    10    12    1
    10    10    13    1
    11     7     8   ar
    12     8     9   ar
    13     2    14    1
    14    14    15    1
    15    15    16   ar
    16    16    17   ar
    17    17    18   ar
    18    18    19   ar
    19    19    20   ar
    20    20    21   ar
    21    21    22   ar
    22    22    23   ar
    23    23    24   ar
    24     9     4   ar
    25    24    15   ar
    26    24    19   ar
@<TRIPOS>MOLECULE
*****
 24 26 0 0 0
SMALL
GASTEIGER

@<TRIPOS>ATOM
      1 C         138.4989  144.9313  162.8689 C.3     1  UNL1        0.0902
      2 N         138.7734  143.9034  163.9262 N.3     1  UNL1       -0.2639
      3 C         139.9915  144.0259  164.7931 C.3     1  UNL1        0.0994
      4 C         140.7684  142.8002  165.1725 C.ar    1  UNL1       -0.0062
      5 C         140.9222  142.4270  166.6172 C.ar    1  UNL1       -0.0032
      6 C         141.6991  141.2013  166.9965 C.ar    1  UNL1       -0.0046
      7 C         142.3222  140.3487  165.9312 C.ar    1  UNL1       -0.0228
      8 C         142.1684  140.7218  164.4865 C.ar    1  UNL1       -0.0046
      9 C         141.3915  141.9476  164.1072 C.ar    1  UNL1       -0.0032
     10 C         143.0992  139.1230  166.3106 C.3     1  UNL1        0.0189
     11 C         142.6949  139.3101  167.7429 C.3     1  UNL1        0.0044
     12 C         143.5034  138.9358  164.8783 C.3     1  UNL1        0.0044
     13 C         143.8761  137.8972  166.6900 C.3     1  UNL1        0.0044
     14 C         137.8299  142.7530  164.1167 C.3     1  UNL1        0.0994
     15 C         137.9924  141.5063  163.2986 C.ar    1  UNL1       -0.0061
     16 C         137.8530  141.5650  161.8063 C.ar    1  UNL1       -0.0029
     17 C         138.0155  140.3183  160.9882 C.ar    1  UNL1       -0.0003
     18 C         138.3175  139.0129  161.6623 C.ar    1  UNL1       -0.0000
     19 C         138.4569  138.9541  163.1547 C.ar    1  UNL1       -0.0003
     20 C         138.7589  137.6486  163.8289 C.ar    1  UNL1       -0.0000
     21 C         138.8984  137.5899  165.3212 C.ar    1  UNL1       -0.0000
     22 C         138.7358  138.8366  166.1394 C.ar    1  UNL1       -0.0000
     23 C         138.4339  140.1420  165.4652 C.ar    1  UNL1       -0.0003
     24 C         138.2944  140.2008  163.9729 C.ar    1  UNL1       -0.0027
@<TRIPOS>BOND
     1     1     2    1
     2     2     3    1
     3     3     4    1
     4     4     5   ar
     5     5     6   ar
     6     6     7   ar
     7     7    10    1
     8    10    11    1
     9    10    12    1
    10    10    13    1
    11     7     8   ar
    12     8     9   ar
    13     2    14    1
    14    14    15    1
    15    15    16   ar
    16    16    17   ar
    17    17    18   ar
    18    18    19   ar
    19    19    20   ar
    20    20    21   ar
    21    21    22   ar
    22    22    23   ar
    23    23    24   ar
    24     9     4   ar
    25    24    15   ar
    26    24    19   ar
@<TRIPOS>MOLECULE
*****
 24 26 0 0 0
SMALL
GASTEIGER

@<TRIPOS>ATOM
      1 C         142.5281  140.5484  170.3864 C.3     1  UNL1        0.0902
      2 N         142.7533  140.4924  168.9045 N.3     1  UNL1       -0.2639
      3 C         143.1192  141.7385  168.1538 C.3     1  UNL1        0.0994
      4 C         142.1695  142.3122  167.1445 C.ar    1  UNL1       -0.0062
      5 C         142.6203  142.5325  165.7309 C.ar    1  UNL1       -0.0032
      6 C         141.6706  143.1062  164.7216 C.ar    1  UNL1       -0.0046
      7 C         140.2699  143.4596  165.1258 C.ar    1  UNL1       -0.0228
      8 C         139.8191  143.2393  166.5394 C.ar    1  UNL1       -0.0046
      9 C         140.7689  142.6655  167.5487 C.ar    1  UNL1       -0.0032
     10 C         139.3202  144.0333  164.1165 C.3     1  UNL1        0.0189
     11 C         139.9689  143.2141  163.0404 C.3     1  UNL1        0.0044
     12 C         138.6714  144.8525  165.1925 C.3     1  UNL1        0.0044
     13 C         138.3704  144.6070  163.1071 C.3     1  UNL1        0.0044
     14 C         142.6127  139.1903  168.1732 C.3     1  UNL1        0.0994
     15 C         142.4887  139.1792  166.6784 C.ar    1  UNL1       -0.0061
     16 C         143.7110  139.0097  165.8256 C.ar    1  UNL1       -0.0029
     17 C         143.5869  138.9987  164.3308 C.ar    1  UNL1       -0.0003
     18 C         142.2406  139.1571  163.6887 C.ar    1  UNL1       -0.0000
     19 C         141.0182  139.3266  164.5415 C.ar    1  UNL1       -0.0003
     20 C         139.6719  139.4850  163.8994 C.ar    1  UNL1       -0.0000
     21 C         138.4496  139.6545  164.7522 C.ar    1  UNL1       -0.0000
     22 C         138.5737  139.6656  166.2470 C.ar    1  UNL1       -0.0000
     23 C         139.9200  139.5072  166.8891 C.ar    1  UNL1       -0.0003
     24 C         141.1423  139.3377  166.0363 C.ar    1  UNL1       -0.0027
@<TRIPOS>BOND
     1     1     2    1
     2     2     3    1
     3     3     4    1
     4     4     5   ar
     5     5     6   ar
     6     6     7   ar
     7     7    10    1
     8    10    11    1
     9    10    12    1
    10    10    13    1
    11     7     8   ar
    12     8     9   ar
    13     2    14    1
    14    14    15    1
    15    15    16   ar
    16    16    17   ar
    17    17    18   ar
    18    18    19   ar
    19    19    20   ar
    20    20    21   ar
    21    21    22   ar
    22    22    23   ar
    23    23    24   ar
    24     9     4   ar
    25    24    15   ar
    26    24    19   ar
@<TRIPOS>MOLECULE
*****
 24 26 0 0 0
SMALL
GASTEIGER

@<TRIPOS>ATOM
      1 C         137.8959  138.7382  166.9808 C.3     1  UNL1        0.0902
      2 N         138.4172  138.8782  165.5813 N.3     1  UNL1       -0.2639
      3 C         138.2060  140.1574  164.8268 C.3     1  UNL1        0.0994
      4 C         139.3330  141.1363  164.6800 C.ar    1  UNL1       -0.0062
      5 C         139.9883  141.7140  165.8994 C.ar    1  UNL1       -0.0032
      6 C         141.1153  142.6930  165.7526 C.ar    1  UNL1       -0.0046
      7 C         141.5871  143.0942  164.3864 C.ar    1  UNL1       -0.0228
      8 C         140.9318  142.5165  163.1670 C.ar    1  UNL1       -0.0046
      9 C         139.8047  141.5375  163.3139 C.ar    1  UNL1       -0.0032
     10 C         142.7140  144.0731  164.2396 C.3     1  UNL1        0.0189
     11 C         141.7431  145.1230  163.7869 C.3     1  UNL1        0.0044
     12 C         143.6850  143.0232  164.6923 C.3     1  UNL1        0.0044
     13 C         143.8410  145.0520  164.0928 C.3     1  UNL1        0.0044
     14 C         139.1495  137.7392  164.9363 C.3     1  UNL1        0.0994
     15 C         140.1292  138.0066  163.8323 C.ar    1  UNL1       -0.0061
     16 C         139.7092  137.8447  162.4014 C.ar    1  UNL1       -0.0029
     17 C         140.6889  138.1121  161.2974 C.ar    1  UNL1       -0.0003
     18 C         142.0884  138.5414  161.6243 C.ar    1  UNL1       -0.0000
     19 C         142.5084  138.7032  163.0552 C.ar    1  UNL1       -0.0003
     20 C         143.9080  139.1325  163.3820 C.ar    1  UNL1       -0.0000
     21 C         144.3279  139.2944  164.8129 C.ar    1  UNL1       -0.0000
     22 C         143.3483  139.0270  165.9169 C.ar    1  UNL1       -0.0000
     23 C         141.9487  138.5977  165.5900 C.ar    1  UNL1       -0.0003
     24 C         141.5288  138.4358  164.1592 C.ar    1  UNL1       -0.0027
@<TRIPOS>BOND
     1     1     2    1
     2     2     3    1
     3     3     4    1
     4     4     5   ar
     5     5     6   ar
     6     6     7   ar
     7     7    10    1
     8    10    11    1
     9    10    12    1
    10    10    13    1
    11     7     8   ar
    12     8     9   ar
    13     2    14    1
    14    14    15    1
    15    15    16   ar
    16    16    17   ar
    17    17    18   ar
    18    18    19   ar
    19    19    20   ar
    20    20    21   ar
    21    21    22   ar
    22    22    23   ar
    23    23    24   ar
    24     9     4   ar
    25    24    15   ar
    26    24    19   ar
@<TRIPOS>MOLECULE
*****
 24 26 0 0 0
SMALL
GASTEIGER

@<TRIPOS>ATOM
      1 C         139.9029  146.0880  161.4497 C.3     1  UNL1        0.0902
      2 N         139.7239  144.8409  162.2638 N.3     1  UNL1       -0.2639
      3 C         139.2137  143.5884  161.6149 C.3     1  UNL1        0.0994
      4 C         139.1028  142.3225  162.4118 C.ar    1  UNL1       -0.0062
      5 C         140.2522  141.3596  162.4540 C.ar    1  UNL1       -0.0032
      6 C         140.1412  140.0937  163.2509 C.ar    1  UNL1       -0.0046
      7 C         138.8808  139.7906  164.0057 C.ar    1  UNL1       -0.0228
      8 C         137.7314  140.7534  163.9634 C.ar    1  UNL1       -0.0046
      9 C         137.8424  142.0194  163.1665 C.ar    1  UNL1       -0.0032
     10 C         138.7699  138.5247  164.8026 C.3     1  UNL1        0.0189
     11 C         139.4897  137.7790  163.7183 C.3     1  UNL1        0.0044
     12 C         138.0500  139.2703  165.8869 C.3     1  UNL1        0.0044
     13 C         138.6589  137.2588  165.5995 C.3     1  UNL1        0.0044
     14 C         140.0550  144.8463  163.7268 C.3     1  UNL1        0.0994
     15 C         141.3874  144.3420  164.1961 C.ar    1  UNL1       -0.0061
     16 C         142.6489  144.8735  163.5828 C.ar    1  UNL1       -0.0029
     17 C         143.9814  144.3692  164.0521 C.ar    1  UNL1       -0.0003
     18 C         144.0524  143.3334  165.1346 C.ar    1  UNL1       -0.0000
     19 C         142.7909  142.8018  165.7480 C.ar    1  UNL1       -0.0003
     20 C         142.8619  141.7660  166.8305 C.ar    1  UNL1       -0.0000
     21 C         141.6004  141.2345  167.4438 C.ar    1  UNL1       -0.0000
     22 C         140.2680  141.7388  166.9745 C.ar    1  UNL1       -0.0000
     23 C         140.1969  142.7746  165.8920 C.ar    1  UNL1       -0.0003
     24 C         141.4584  143.3061  165.2787 C.ar    1  UNL1       -0.0027
@<TRIPOS>BOND
     1     1     2    1
     2     2     3    1
     3     3     4    1
     4     4     5   ar
     5     5     6   ar
     6     6     7   ar
     7     7    10    1
     8    10    11    1
     9    10    12    1
    10    10    13    1
    11     7     8   ar
    12     8     9   ar
    13     2    14    1
    14    14    15    1
    15    15    16   ar
    16    16    17   ar
    17    17    18   ar
    18    18    19   ar
    19    19    20   ar
    20    20    21   ar
    21    21    22   ar
    22    22    23   ar
    23    23    24   ar
    24     9     4   ar
    25    24    15   ar
    26    24    19   ar
@<TRIPOS>MOLECULE
*****
 24 26 0 0 0
SMALL
GASTEIGER

@<TRIPOS>ATOM
      1 C         144.1783  140.0558  161.7379 C.3     1  UNL1        0.0902
      2 N         143.3789  139.2967  162.7551 N.3     1  UNL1       -0.2639
      3 C         143.9356  139.0702  164.1295 C.3     1  UNL1        0.0994
      4 C         143.4613  139.9098  165.2785 C.ar    1  UNL1       -0.0062
      5 C         142.8119  139.2601  166.4643 C.ar    1  UNL1       -0.0032
      6 C         142.3377  140.0997  167.6133 C.ar    1  UNL1       -0.0046
      7 C         142.5128  141.5890  167.5764 C.ar    1  UNL1       -0.0228
      8 C         143.1622  142.2387  166.3906 C.ar    1  UNL1       -0.0046
      9 C         143.6365  141.3990  165.2416 C.ar    1  UNL1       -0.0032
     10 C         142.0386  142.4286  168.7254 C.3     1  UNL1        0.0189
     11 C         143.3687  142.2596  169.3979 C.3     1  UNL1        0.0044
     12 C         140.7085  142.5976  168.0529 C.3     1  UNL1        0.0044
     13 C         141.5644  143.2682  169.8743 C.3     1  UNL1        0.0044
     14 C         142.0230  138.7640  162.3980 C.3     1  UNL1        0.0994
     15 C         140.9065  138.8235  163.3980 C.ar    1  UNL1       -0.0061
     16 C         140.3844  137.5600  164.0152 C.ar    1  UNL1       -0.0029
     17 C         139.2680  137.6195  165.0152 C.ar    1  UNL1       -0.0003
     18 C         138.6737  138.9424  165.3981 C.ar    1  UNL1       -0.0000
     19 C         139.1958  140.2060  164.7808 C.ar    1  UNL1       -0.0003
     20 C         138.6015  141.5289  165.1637 C.ar    1  UNL1       -0.0000
     21 C         139.1237  142.7924  164.5465 C.ar    1  UNL1       -0.0000
     22 C         140.2401  142.7329  163.5465 C.ar    1  UNL1       -0.0000
     23 C         140.8344  141.4100  163.1636 C.ar    1  UNL1       -0.0003
     24 C         140.3122  140.1465  163.7808 C.ar    1  UNL1       -0.0027
@<TRIPOS>BOND
     1     1     2    1
     2     2     3    1
     3     3     4    1
     4     4     5   ar
     5     5     6   ar
     6     6     7   ar
     7     7    10    1
     8    10    11    1
     9    10    12    1
    10    10    13    1
    11     7     8   ar
    12     8     9   ar
    13     2    14    1
    14    14    15    1
    15    15    16   ar
    16    16    17   ar
    17    17    18   ar
    18    18    19   ar
    19    19    20   ar
    20    20    21   ar
    21    21    22   ar
    22    22    23   ar
    23    23    24   ar
    24     9     4   ar
    25    24    15   ar
    26    24    19   ar
@<TRIPOS>MOLECULE
*****
 24 26 0 0 0
SMALL
GASTEIGER

@<TRIPOS>ATOM
      1 C         139.6070  146.2617  161.7524 C.3     1  UNL1        0.0902
      2 N         139.6491  144.8753  162.3236 N.3     1  UNL1       -0.2639
      3 C         138.5581  144.4089  163.2415 C.3     1  UNL1        0.0994
      4 C         138.5446  142.9909  163.7305 C.ar    1  UNL1       -0.0062
      5 C         137.9198  141.9147  162.8931 C.ar    1  UNL1       -0.0032
      6 C         137.9062  140.4967  163.3821 C.ar    1  UNL1       -0.0046
      7 C         138.5175  140.1550  164.7086 C.ar    1  UNL1       -0.0228
      8 C         139.1423  141.2312  165.5461 C.ar    1  UNL1       -0.0046
      9 C         139.1558  142.6492  165.0570 C.ar    1  UNL1       -0.0032
     10 C         138.5039  138.7370  165.1977 C.3     1  UNL1        0.0189
     11 C         138.1598  139.2160  166.5768 C.3     1  UNL1        0.0044
     12 C         138.8480  138.2581  163.8185 C.3     1  UNL1        0.0044
     13 C         138.4903  137.3191  165.6867 C.3     1  UNL1        0.0044
     14 C         140.7820  143.9554  161.9770 C.3     1  UNL1        0.0994
     15 C         141.9398  143.8035  162.9185 C.ar    1  UNL1       -0.0061
     16 C         142.6644  145.0181  163.4183 C.ar    1  UNL1       -0.0029
     17 C         143.8222  144.8662  164.3598 C.ar    1  UNL1       -0.0003
     18 C         144.2553  143.4998  164.8017 C.ar    1  UNL1       -0.0000
     19 C         143.5307  142.2852  164.3019 C.ar    1  UNL1       -0.0003
     20 C         143.9638  140.9188  164.7438 C.ar    1  UNL1       -0.0000
     21 C         143.2392  139.7042  164.2441 C.ar    1  UNL1       -0.0000
     22 C         142.0814  139.8561  163.3025 C.ar    1  UNL1       -0.0000
     23 C         141.6483  141.2225  162.8607 C.ar    1  UNL1       -0.0003
     24 C         142.3729  142.4370  163.3604 C.ar    1  UNL1       -0.0027
@<TRIPOS>BOND
     1     1     2    1
     2     2     3    1
     3     3     4    1
     4     4     5   ar
     5     5     6   ar
     6     6     7   ar
     7     7    10    1
     8    10    11    1
     9    10    12    1
    10    10    13    1
    11     7     8   ar
    12     8     9   ar
    13     2    14    1
    14    14    15    1
    15    15    16   ar
    16    16    17   ar
    17    17    18   ar
    18    18    19   ar
    19    19    20   ar
    20    20    21   ar
    21    21    22   ar
    22    22    23   ar
    23    23    24   ar
    24     9     4   ar
    25    24    15   ar
    26    24    19   ar
@<TRIPOS>MOLECULE
*****
 24 26 0 0 0
SMALL
GASTEIGER

@<TRIPOS>ATOM
      1 C         138.4470  142.3542  161.6303 C.3     1  UNL1        0.0902
      2 N         138.5620  141.0684  162.3941 N.3     1  UNL1       -0.2639
      3 C         137.7325  140.8503  163.6248 C.3     1  UNL1        0.0994
      4 C         138.3990  140.6723  164.9566 C.ar    1  UNL1       -0.0062
      5 C         139.3493  141.7155  165.4652 C.ar    1  UNL1       -0.0032
      6 C         140.0158  141.5374  166.7971 C.ar    1  UNL1       -0.0046
      7 C         139.7321  140.3161  167.6205 C.ar    1  UNL1       -0.0228
      8 C         138.7819  139.2728  167.1119 C.ar    1  UNL1       -0.0046
      9 C         138.1153  139.4509  165.7799 C.ar    1  UNL1       -0.0032
     10 C         140.3987  140.1380  168.9524 C.3     1  UNL1        0.0189
     11 C         139.0836  140.3568  169.6398 C.3     1  UNL1        0.0044
     12 C         141.7138  139.9191  168.2650 C.3     1  UNL1        0.0044
     13 C         141.0652  139.9599  170.2843 C.3     1  UNL1        0.0044
     14 C         139.5064  140.0006  161.9273 C.3     1  UNL1        0.0994
     15 C         140.3730  139.2806  162.9176 C.ar    1  UNL1       -0.0061
     16 C         140.0458  137.8719  163.3157 C.ar    1  UNL1       -0.0029
     17 C         140.9124  137.1519  164.3060 C.ar    1  UNL1       -0.0003
     18 C         142.1062  137.8405  164.8981 C.ar    1  UNL1       -0.0000
     19 C         142.4334  139.2493  164.4999 C.ar    1  UNL1       -0.0003
     20 C         143.6272  139.9379  165.0920 C.ar    1  UNL1       -0.0000
     21 C         143.9544  141.3466  164.6938 C.ar    1  UNL1       -0.0000
     22 C         143.0878  142.0666  163.7036 C.ar    1  UNL1       -0.0000
     23 C         141.8940  141.3780  163.1115 C.ar    1  UNL1       -0.0003
     24 C         141.5668  139.9693  163.5097 C.ar    1  UNL1       -0.0027
@<TRIPOS>BOND
     1     1     2    1
     2     2     3    1
     3     3     4    1
     4     4     5   ar
     5     5     6   ar
     6     6     7   ar
     7     7    10    1
     8    10    11    1
     9    10    12    1
    10    10    13    1
    11     7     8   ar
    12     8     9   ar
    13     2    14    1
    14    14    15    1
    15    15    16   ar
    16    16    17   ar
    17    17    18   ar
    18    18    19   ar
    19    19    20   ar
    20    20    21   ar
    21    21    22   ar
    22    22    23   ar
    23    23    24   ar
    24     9     4   ar
    25    24    15   ar
    26    24    19   ar
