@<TRIPOS>MOLECULE
*****
 30 34 0 0 0
SMALL
GASTEIGER

@<TRIPOS>ATOM
      1 C         141.8209  142.2500  167.1839 C.2     1  UNL1        0.0866
      2 N         143.2944  141.9755  167.1250 N.2     1  UNL1       -0.1523
      3 N         143.7918  142.4022  165.7757 N.2     1  UNL1       -0.1523
      4 C         142.6257  142.9404  165.0007 C.2     1  UNL1        0.0858
      5 C         141.4076  142.8464  165.8711 C.3     1  UNL1        0.0883
      6 C         140.2416  143.3846  165.0962 C.3     1  UNL1        0.0384
      7 C         140.7389  143.8113  163.7468 C.ar    1  UNL1       -0.0205
      8 C         140.0404  144.4143  162.5643 C.ar    1  UNL1       -0.0071
      9 C         140.8154  144.7428  161.3228 C.ar    1  UNL1       -0.0065
     10 C         142.2889  144.4683  161.2638 C.ar    1  UNL1       -0.0029
     11 C         142.9874  143.8653  162.4463 C.ar    1  UNL1        0.0006
     12 C         142.2124  143.5368  163.6879 C.ar    1  UNL1        0.0117
     13 C         139.2407  140.9664  169.7840 C.ar    1  UNL1        0.0710
     14 C         139.9188  140.8629  168.4500 C.ar    1  UNL1        0.0165
     15 C         140.9191  141.9763  168.3509 C.ar    1  UNL1        0.0233
     16 C         140.8593  142.7679  169.6236 C.ar    1  UNL1        0.0373
     17 S         139.8219  142.1437  170.5093 S.2     1  UNL1       -0.0780
     18 C         137.0983  139.1395  170.8193 C.1     1  UNL1       -0.0534
     19 C         138.1695  140.0529  170.3017 C.1     1  UNL1       -0.0554
     20 C         136.0271  138.2259  171.3370 C.3     1  UNL1        0.2182
     21 C         136.1263  136.3665  173.1488 C.3     1  UNL1        0.1755
     22 O         136.3688  136.8222  171.7404 O.3     1  UNL1       -0.3374
     23 C         140.1169  145.3459  160.1402 C.3     1  UNL1        0.0992
     24 N         140.4103  144.8414  158.7584 N.3     1  UNL1       -0.2665
     25 C         141.1209  145.7219  157.7736 C.3     1  UNL1        0.0899
     26 C         141.4143  145.2174  156.3918 C.3     1  UNL1        0.0897
     27 N         140.9971  143.8324  155.9947 N.3     1  UNL1       -0.2691
     28 C         141.2904  143.3279  154.6129 C.3     1  UNL1        0.0897
     29 C         140.2864  142.9519  156.9795 C.3     1  UNL1        0.0897
     30 C         139.9930  143.4564  158.3613 C.3     1  UNL1        0.0899
@<TRIPOS>BOND
     1    21    22    1
     2    22    20    1
     3    20    18    1
     4    18    19    3
     5    19    13    1
     6    13    14   ar
     7    14    15   ar
     8    15     1    1
     9     1     2    2
    10     2     3    1
    11     3     4    2
    12     4     5    1
    13     5     6    1
    14     6     7    1
    15     7     8   ar
    16     8     9   ar
    17     9    23    1
    18    23    24    1
    19    24    25    1
    20    25    26    1
    21    26    27    1
    22    27    28    1
    23    27    29    1
    24    29    30    1
    25     9    10   ar
    26    10    11   ar
    27    11    12   ar
    28    15    16   ar
    29    16    17   ar
    30    17    13   ar
    31     5     1    1
    32    12     7   ar
    33    12     4    1
    34    30    24    1
@<TRIPOS>MOLECULE
*****
 30 34 0 0 0
SMALL
GASTEIGER

@<TRIPOS>ATOM
      1 C         140.3857  141.7155  167.5973 C.2     1  UNL1        0.0866
      2 N         140.3496  143.2150  167.5906 N.2     1  UNL1       -0.1523
      3 N         139.7839  143.6592  166.2742 N.2     1  UNL1       -0.1523
      4 C         139.4704  142.4341  165.4674 C.2     1  UNL1        0.0858
      5 C         139.8423  141.2328  166.2851 C.3     1  UNL1        0.0883
      6 C         139.5288  140.0078  165.4783 C.3     1  UNL1        0.0384
      7 C         138.9631  140.4519  164.1619 C.ar    1  UNL1       -0.0205
      8 C         138.4762  139.6846  162.9686 C.ar    1  UNL1       -0.0071
      9 C         137.9532  140.4168  161.7685 C.ar    1  UNL1       -0.0065
     10 C         137.9171  141.9164  161.7618 C.ar    1  UNL1       -0.0029
     11 C         138.4040  142.6837  162.9551 C.ar    1  UNL1        0.0006
     12 C         138.9270  141.9515  164.1552 C.ar    1  UNL1        0.0117
     13 C         142.0748  139.1453  169.9651 C.ar    1  UNL1        0.0710
     14 C         141.8766  139.7369  168.6010 C.ar    1  UNL1        0.0165
     15 C         140.8786  140.8504  168.7192 C.ar    1  UNL1        0.0233
     16 C         140.4599  140.9471  170.1564 C.ar    1  UNL1        0.0373
     17 S         141.1993  139.8932  170.9264 S.2     1  UNL1       -0.0780
     18 C         143.9015  136.8664  170.6503 C.1     1  UNL1       -0.0534
     19 C         142.9881  138.0058  170.3077 C.1     1  UNL1       -0.0554
     20 C         144.8149  135.7270  170.9928 C.3     1  UNL1        0.2182
     21 C         146.5037  136.3542  172.8649 C.3     1  UNL1        0.1755
     22 O         146.2220  136.0004  171.4347 O.3     1  UNL1       -0.3374
     23 C         137.4663  139.6495  160.5751 C.3     1  UNL1        0.0992
     24 N         138.2232  139.7147  159.2817 N.3     1  UNL1       -0.2665
     25 C         137.7958  140.6732  158.2100 C.3     1  UNL1        0.0899
     26 C         138.5527  140.7384  156.9166 C.3     1  UNL1        0.0897
     27 N         139.7371  139.8450  156.6950 N.3     1  UNL1       -0.2691
     28 C         140.4941  139.9101  155.4016 C.3     1  UNL1        0.0897
     29 C         140.1645  138.8864  157.7666 C.3     1  UNL1        0.0897
     30 C         139.4076  138.8213  159.0600 C.3     1  UNL1        0.0899
@<TRIPOS>BOND
     1    21    22    1
     2    22    20    1
     3    20    18    1
     4    18    19    3
     5    19    13    1
     6    13    14   ar
     7    14    15   ar
     8    15     1    1
     9     1     2    2
    10     2     3    1
    11     3     4    2
    12     4     5    1
    13     5     6    1
    14     6     7    1
    15     7     8   ar
    16     8     9   ar
    17     9    23    1
    18    23    24    1
    19    24    25    1
    20    25    26    1
    21    26    27    1
    22    27    28    1
    23    27    29    1
    24    29    30    1
    25     9    10   ar
    26    10    11   ar
    27    11    12   ar
    28    15    16   ar
    29    16    17   ar
    30    17    13   ar
    31     5     1    1
    32    12     7   ar
    33    12     4    1
    34    30    24    1
@<TRIPOS>MOLECULE
*****
 30 34 0 0 0
SMALL
GASTEIGER

@<TRIPOS>ATOM
      1 C         141.1927  142.1444  167.1957 C.2     1  UNL1        0.0866
      2 N         140.0215  143.0757  167.0914 N.2     1  UNL1       -0.1523
      3 N         140.0075  143.6497  165.7056 N.2     1  UNL1       -0.1523
      4 C         141.1702  143.0730  164.9534 C.2     1  UNL1        0.0858
      5 C         141.9027  142.1427  165.8744 C.3     1  UNL1        0.0883
      6 C         143.0653  141.5661  165.1222 C.3     1  UNL1        0.0384
      7 C         143.0514  142.1400  163.7364 C.ar    1  UNL1       -0.0205
      8 C         143.9540  141.9348  162.5560 C.ar    1  UNL1       -0.0071
      9 C         143.6853  142.6610  161.2714 C.ar    1  UNL1       -0.0065
     10 C         142.5140  143.5923  161.1670 C.ar    1  UNL1       -0.0029
     11 C         141.6115  143.7975  162.3474 C.ar    1  UNL1        0.0006
     12 C         141.8802  143.0713  163.6321 C.ar    1  UNL1        0.0117
     13 C         142.4678  139.5984  169.8334 C.ar    1  UNL1        0.0710
     14 C         142.2671  140.0177  168.4072 C.ar    1  UNL1        0.0165
     15 C         141.5851  141.3537  168.4085 C.ar    1  UNL1        0.0233
     16 C         141.3643  141.7601  169.8354 C.ar    1  UNL1        0.0373
     17 S         141.9099  140.6752  170.7160 S.2     1  UNL1       -0.0780
     18 C         143.7586  137.0531  170.7579 C.1     1  UNL1       -0.0534
     19 C         143.1132  138.3257  170.2956 C.1     1  UNL1       -0.0554
     20 C         144.4041  135.7803  171.2201 C.3     1  UNL1        0.2182
     21 C         146.7885  136.5397  171.9187 C.3     1  UNL1        0.1755
     22 O         145.8935  135.6223  171.1393 O.3     1  UNL1       -0.3374
     23 C         144.5878  142.4558  160.0909 C.3     1  UNL1        0.0992
     24 N         144.2766  141.3868  159.0857 N.3     1  UNL1       -0.2665
     25 C         143.4203  140.2182  159.4745 C.3     1  UNL1        0.0899
     26 C         143.1091  139.1492  158.4693 C.3     1  UNL1        0.0897
     27 N         143.6543  139.2488  157.0754 N.3     1  UNL1       -0.2691
     28 C         143.3431  138.1798  156.0702 C.3     1  UNL1        0.0897
     29 C         144.5106  140.4174  156.6867 C.3     1  UNL1        0.0897
     30 C         144.8218  141.4864  157.6919 C.3     1  UNL1        0.0899
@<TRIPOS>BOND
     1    21    22    1
     2    22    20    1
     3    20    18    1
     4    18    19    3
     5    19    13    1
     6    13    14   ar
     7    14    15   ar
     8    15     1    1
     9     1     2    2
    10     2     3    1
    11     3     4    2
    12     4     5    1
    13     5     6    1
    14     6     7    1
    15     7     8   ar
    16     8     9   ar
    17     9    23    1
    18    23    24    1
    19    24    25    1
    20    25    26    1
    21    26    27    1
    22    27    28    1
    23    27    29    1
    24    29    30    1
    25     9    10   ar
    26    10    11   ar
    27    11    12   ar
    28    15    16   ar
    29    16    17   ar
    30    17    13   ar
    31     5     1    1
    32    12     7   ar
    33    12     4    1
    34    30    24    1
@<TRIPOS>MOLECULE
*****
 30 34 0 0 0
SMALL
GASTEIGER

@<TRIPOS>ATOM
      1 C         138.5302  140.3104  162.8466 C.2     1  UNL1        0.0866
      2 N         137.3341  140.9525  162.2087 N.2     1  UNL1       -0.1523
      3 N         137.4270  140.7370  160.7272 N.2     1  UNL1       -0.1523
      4 C         138.6807  139.9615  160.4495 C.2     1  UNL1        0.0858
      5 C         139.3625  139.6979  161.7593 C.3     1  UNL1        0.0883
      6 C         140.6161  138.9226  161.4815 C.3     1  UNL1        0.0384
      7 C         140.7091  138.7069  160.0000 C.ar    1  UNL1       -0.0205
      8 C         141.7285  138.0088  159.1494 C.ar    1  UNL1       -0.0071
      9 C         141.5517  137.9529  157.6610 C.ar    1  UNL1       -0.0065
     10 C         140.3555  138.5950  157.0231 C.ar    1  UNL1       -0.0029
     11 C         139.3362  139.2931  157.8737 C.ar    1  UNL1        0.0006
     12 C         139.5130  139.3491  159.3621 C.ar    1  UNL1        0.0117
     13 C         139.6129  140.9331  166.5216 C.ar    1  UNL1        0.0710
     14 C         139.5020  141.3817  165.0945 C.ar    1  UNL1        0.0165
     15 C         138.8398  140.2852  164.3141 C.ar    1  UNL1        0.0233
     16 C         138.5414  139.1588  165.2588 C.ar    1  UNL1        0.0373
     17 S         139.0193  139.5593  166.6231 S.2     1  UNL1       -0.0780
     18 C         140.8116  142.5073  168.7765 C.1     1  UNL1       -0.0534
     19 C         140.2123  141.7202  167.6491 C.1     1  UNL1       -0.0554
     20 C         141.4110  143.2944  169.9040 C.3     1  UNL1        0.2182
     21 C         141.8126  141.1067  171.2467 C.3     1  UNL1        0.1755
     22 O         141.7920  142.6052  171.1806 O.3     1  UNL1       -0.3374
     23 C         142.5711  137.2548  156.8103 C.3     1  UNL1        0.0992
     24 N         142.4801  135.7732  156.5947 N.3     1  UNL1       -0.2665
     25 C         143.3305  134.8432  157.4084 C.3     1  UNL1        0.0899
     26 C         143.2395  133.3616  157.1928 C.3     1  UNL1        0.0897
     27 N         142.2981  132.8099  156.1635 N.3     1  UNL1       -0.2691
     28 C         142.2071  131.3283  155.9479 C.3     1  UNL1        0.0897
     29 C         141.4477  133.7398  155.3498 C.3     1  UNL1        0.0897
     30 C         141.5387  135.2214  155.5654 C.3     1  UNL1        0.0899
@<TRIPOS>BOND
     1    21    22    1
     2    22    20    1
     3    20    18    1
     4    18    19    3
     5    19    13    1
     6    13    14   ar
     7    14    15   ar
     8    15     1    1
     9     1     2    2
    10     2     3    1
    11     3     4    2
    12     4     5    1
    13     5     6    1
    14     6     7    1
    15     7     8   ar
    16     8     9   ar
    17     9    23    1
    18    23    24    1
    19    24    25    1
    20    25    26    1
    21    26    27    1
    22    27    28    1
    23    27    29    1
    24    29    30    1
    25     9    10   ar
    26    10    11   ar
    27    11    12   ar
    28    15    16   ar
    29    16    17   ar
    30    17    13   ar
    31     5     1    1
    32    12     7   ar
    33    12     4    1
    34    30    24    1
@<TRIPOS>MOLECULE
*****
 30 34 0 0 0
SMALL
GASTEIGER

@<TRIPOS>ATOM
      1 C         142.9111  138.8834  158.4711 C.2     1  UNL1        0.0866
      2 N         143.5380  140.1893  158.0818 N.2     1  UNL1       -0.1523
      3 N         144.0025  140.8721  159.3341 N.2     1  UNL1       -0.1523
      4 C         143.6626  139.9880  160.4974 C.2     1  UNL1        0.0858
      5 C         142.9881  138.7590  159.9640 C.3     1  UNL1        0.0883
      6 C         142.6482  137.8751  161.1272 C.3     1  UNL1        0.0384
      7 C         143.1126  138.5577  162.3795 C.ar    1  UNL1       -0.0205
      8 C         143.0457  138.1590  163.8239 C.ar    1  UNL1       -0.0071
      9 C         143.6057  139.0661  164.8791 C.ar    1  UNL1       -0.0065
     10 C         144.2326  140.3720  164.4898 C.ar    1  UNL1       -0.0029
     11 C         144.2996  140.7708  163.0454 C.ar    1  UNL1        0.0006
     12 C         143.7396  139.8637  161.9902 C.ar    1  UNL1        0.0117
     13 C         141.9432  135.8511  156.2499 C.ar    1  UNL1        0.0710
     14 C         142.8541  136.5099  157.2429 C.ar    1  UNL1        0.0165
     15 C         142.3122  137.8783  157.5324 C.ar    1  UNL1        0.0233
     16 C         141.0663  138.0653  156.7182 C.ar    1  UNL1        0.0373
     17 S         140.8382  136.8123  155.9256 S.2     1  UNL1       -0.0780
     18 C         142.2731  133.0950  155.1122 C.1     1  UNL1       -0.0534
     19 C         142.1082  134.4730  155.6810 C.1     1  UNL1       -0.0554
     20 C         142.4380  131.7168  154.5434 C.3     1  UNL1        0.2182
     21 C         144.6506  131.4260  155.8738 C.3     1  UNL1        0.1755
     22 O         143.5912  130.8602  154.9751 O.3     1  UNL1       -0.3374
     23 C         143.5387  138.6673  166.3236 C.3     1  UNL1        0.0992
     24 N         142.4398  139.1955  167.1973 N.3     1  UNL1       -0.2665
     25 C         141.1424  139.6362  166.5867 C.3     1  UNL1        0.0899
     26 C         140.0434  140.1644  167.4603 C.3     1  UNL1        0.0897
     27 N         140.2418  140.2519  168.9446 N.3     1  UNL1       -0.2691
     28 C         139.1428  140.7800  169.8183 C.3     1  UNL1        0.0897
     29 C         141.5391  139.8112  169.5552 C.3     1  UNL1        0.0897
     30 C         142.6381  139.2830  168.6815 C.3     1  UNL1        0.0899
@<TRIPOS>BOND
     1    21    22    1
     2    22    20    1
     3    20    18    1
     4    18    19    3
     5    19    13    1
     6    13    14   ar
     7    14    15   ar
     8    15     1    1
     9     1     2    2
    10     2     3    1
    11     3     4    2
    12     4     5    1
    13     5     6    1
    14     6     7    1
    15     7     8   ar
    16     8     9   ar
    17     9    23    1
    18    23    24    1
    19    24    25    1
    20    25    26    1
    21    26    27    1
    22    27    28    1
    23    27    29    1
    24    29    30    1
    25     9    10   ar
    26    10    11   ar
    27    11    12   ar
    28    15    16   ar
    29    16    17   ar
    30    17    13   ar
    31     5     1    1
    32    12     7   ar
    33    12     4    1
    34    30    24    1
@<TRIPOS>MOLECULE
*****
 30 34 0 0 0
SMALL
GASTEIGER

@<TRIPOS>ATOM
      1 C         139.8183  140.9533  162.4415 C.2     1  UNL1        0.0866
      2 N         138.3789  141.1272  162.0569 N.2     1  UNL1       -0.1523
      3 N         138.1648  140.4416  160.7400 N.2     1  UNL1       -0.1523
      4 C         139.4721  139.8441  160.3107 C.2     1  UNL1        0.0858
      5 C         140.4939  140.1603  161.3623 C.3     1  UNL1        0.0883
      6 C         141.8010  139.5628  160.9330 C.3     1  UNL1        0.0384
      7 C         141.5871  138.8772  159.6161 C.ar    1  UNL1       -0.0205
      8 C         142.5169  138.1171  158.7175 C.ar    1  UNL1       -0.0071
      9 C         142.0074  137.5309  157.4343 C.ar    1  UNL1       -0.0065
     10 C         140.5680  137.7047  157.0497 C.ar    1  UNL1       -0.0029
     11 C         139.6381  138.4648  157.9483 C.ar    1  UNL1        0.0006
     12 C         140.1477  139.0510  159.2315 C.ar    1  UNL1        0.0117
     13 C         140.8313  142.1775  165.9828 C.ar    1  UNL1        0.0710
     14 C         139.8198  141.6068  165.0334 C.ar    1  UNL1        0.0165
     15 C         140.4680  141.4800  163.6867 C.ar    1  UNL1        0.0233
     16 C         141.8801  141.9724  163.8036 C.ar    1  UNL1        0.0373
     17 S         142.1046  142.4035  165.2228 S.2     1  UNL1       -0.0780
     18 C         140.3857  142.7640  168.8909 C.1     1  UNL1       -0.0534
     19 C         140.6085  142.4708  167.4369 C.1     1  UNL1       -0.0554
     20 C         140.1628  143.0572  170.3450 C.3     1  UNL1        0.2182
     21 C         141.5823  141.0313  171.1392 C.3     1  UNL1        0.1755
     22 O         141.0254  142.4026  171.3830 O.3     1  UNL1       -0.3374
     23 C         142.9373  136.7707  156.5356 C.3     1  UNL1        0.0992
     24 N         142.7395  135.2990  156.3239 N.3     1  UNL1       -0.2665
     25 C         141.9636  134.8096  155.1371 C.3     1  UNL1        0.0899
     26 C         141.7657  133.3378  154.9254 C.3     1  UNL1        0.0897
     27 N         142.3439  132.3555  155.9006 N.3     1  UNL1       -0.2691
     28 C         142.1461  130.8837  155.6890 C.3     1  UNL1        0.0897
     29 C         143.1198  132.8449  157.0873 C.3     1  UNL1        0.0897
     30 C         143.3176  134.3167  157.2990 C.3     1  UNL1        0.0899
@<TRIPOS>BOND
     1    21    22    1
     2    22    20    1
     3    20    18    1
     4    18    19    3
     5    19    13    1
     6    13    14   ar
     7    14    15   ar
     8    15     1    1
     9     1     2    2
    10     2     3    1
    11     3     4    2
    12     4     5    1
    13     5     6    1
    14     6     7    1
    15     7     8   ar
    16     8     9   ar
    17     9    23    1
    18    23    24    1
    19    24    25    1
    20    25    26    1
    21    26    27    1
    22    27    28    1
    23    27    29    1
    24    29    30    1
    25     9    10   ar
    26    10    11   ar
    27    11    12   ar
    28    15    16   ar
    29    16    17   ar
    30    17    13   ar
    31     5     1    1
    32    12     7   ar
    33    12     4    1
    34    30    24    1
@<TRIPOS>MOLECULE
*****
 30 34 0 0 0
SMALL
GASTEIGER

@<TRIPOS>ATOM
      1 C         138.7817  140.7951  158.4138 C.2     1  UNL1        0.0866
      2 N         138.5030  142.2617  158.2676 N.2     1  UNL1       -0.1523
      3 N         138.2572  142.8255  159.6357 N.2     1  UNL1       -0.1523
      4 C         138.3840  141.7073  160.6275 C.2     1  UNL1        0.0858
      5 C         138.7082  140.4525  159.8722 C.3     1  UNL1        0.0883
      6 C         138.8350  139.3343  160.8640 C.3     1  UNL1        0.0384
      7 C         138.5892  139.8980  162.2322 C.ar    1  UNL1       -0.0205
      8 C         138.5832  139.2654  163.5922 C.ar    1  UNL1       -0.0071
      9 C         138.2984  140.0993  164.8060 C.ar    1  UNL1       -0.0065
     10 C         138.0197  141.5659  164.6598 C.ar    1  UNL1       -0.0029
     11 C         138.0257  142.1986  163.2998 C.ar    1  UNL1        0.0006
     12 C         138.3105  141.3646  162.0860 C.ar    1  UNL1        0.0117
     13 C         139.8707  137.9016  156.0670 C.ar    1  UNL1        0.0710
     14 C         139.7885  138.5228  157.4299 C.ar    1  UNL1        0.0165
     15 C         139.0814  139.8390  157.2975 C.ar    1  UNL1        0.0233
     16 C         138.7264  140.0313  155.8528 C.ar    1  UNL1        0.0373
     17 S         139.2143  138.8339  155.0923 S.2     1  UNL1       -0.0780
     18 C         141.1271  135.2588  155.4066 C.1     1  UNL1       -0.0534
     19 C         140.4989  136.5801  155.7368 C.1     1  UNL1       -0.0554
     20 C         141.7555  133.9373  155.0764 C.3     1  UNL1        0.2182
     21 C         142.3982  131.5170  155.7687 C.3     1  UNL1        0.1755
     22 O         141.8217  132.8577  156.1156 O.3     1  UNL1       -0.3374
     23 C         138.2924  139.4667  166.1661 C.3     1  UNL1        0.0992
     24 N         139.4389  139.6970  167.1055 N.3     1  UNL1       -0.2665
     25 C         140.8493  139.6232  166.5999 C.3     1  UNL1        0.0899
     26 C         141.9958  139.8536  167.5393 C.3     1  UNL1        0.0897
     27 N         141.7319  140.1578  168.9842 N.3     1  UNL1       -0.2691
     28 C         142.8784  140.3882  169.9236 C.3     1  UNL1        0.0897
     29 C         140.3216  140.2316  169.4898 C.3     1  UNL1        0.0897
     30 C         139.1751  140.0013  168.5504 C.3     1  UNL1        0.0899
@<TRIPOS>BOND
     1    21    22    1
     2    22    20    1
     3    20    18    1
     4    18    19    3
     5    19    13    1
     6    13    14   ar
     7    14    15   ar
     8    15     1    1
     9     1     2    2
    10     2     3    1
    11     3     4    2
    12     4     5    1
    13     5     6    1
    14     6     7    1
    15     7     8   ar
    16     8     9   ar
    17     9    23    1
    18    23    24    1
    19    24    25    1
    20    25    26    1
    21    26    27    1
    22    27    28    1
    23    27    29    1
    24    29    30    1
    25     9    10   ar
    26    10    11   ar
    27    11    12   ar
    28    15    16   ar
    29    16    17   ar
    30    17    13   ar
    31     5     1    1
    32    12     7   ar
    33    12     4    1
    34    30    24    1
@<TRIPOS>MOLECULE
*****
 30 34 0 0 0
SMALL
GASTEIGER

@<TRIPOS>ATOM
      1 C         141.4169  140.0151  160.3000 C.2     1  UNL1        0.0866
      2 N         140.6312  138.9032  159.6703 N.2     1  UNL1       -0.1523
      3 N         139.8080  138.2524  160.7422 N.2     1  UNL1       -0.1523
      4 C         140.0850  138.9621  162.0344 C.2     1  UNL1        0.0858
      5 C         141.0793  140.0515  161.7610 C.3     1  UNL1        0.0883
      6 C         141.3561  140.7611  163.0532 C.3     1  UNL1        0.0384
      7 C         140.5330  140.1104  164.1251 C.ar    1  UNL1       -0.0205
      8 C         140.3973  140.3867  165.5932 C.ar    1  UNL1       -0.0071
      9 C         139.4760  139.5510  166.4315 C.ar    1  UNL1       -0.0065
     10 C         138.6904  138.4392  165.8018 C.ar    1  UNL1       -0.0029
     11 C         138.8260  138.1629  164.3338 C.ar    1  UNL1        0.0006
     12 C         139.7473  138.9985  163.4954 C.ar    1  UNL1        0.0117
     13 C         144.1748  141.7452  158.1867 C.ar    1  UNL1        0.0710
     14 C         143.4713  140.5088  158.6627 C.ar    1  UNL1        0.0165
     15 C         142.3724  140.9299  159.5928 C.ar    1  UNL1        0.0233
     16 C         142.3966  142.4265  159.6916 C.ar    1  UNL1        0.0373
     17 S         143.5106  142.9303  158.8225 S.2     1  UNL1       -0.0780
     18 C         146.5014  141.8322  156.2950 C.1     1  UNL1       -0.0534
     19 C         145.3381  141.7887  157.2408 C.1     1  UNL1       -0.0554
     20 C         147.6649  141.8757  155.3491 C.3     1  UNL1        0.2182
     21 C         150.2124  141.5090  154.9944 C.3     1  UNL1        0.1755
     22 O         149.0662  141.8899  155.8840 O.3     1  UNL1       -0.3374
     23 C         139.3403  139.8273  167.8997 C.3     1  UNL1        0.0992
     24 N         140.3544  140.6835  168.5986 N.3     1  UNL1       -0.2665
     25 C         140.0766  142.1397  168.8274 C.3     1  UNL1        0.0899
     26 C         141.0907  142.9960  169.5263 C.3     1  UNL1        0.0897
     27 N         142.3827  142.3960  169.9964 N.3     1  UNL1       -0.2691
     28 C         143.3968  143.2522  170.6953 C.3     1  UNL1        0.0897
     29 C         142.6605  140.9398  169.7676 C.3     1  UNL1        0.0897
     30 C         141.6464  140.0836  169.0686 C.3     1  UNL1        0.0899
@<TRIPOS>BOND
     1    21    22    1
     2    22    20    1
     3    20    18    1
     4    18    19    3
     5    19    13    1
     6    13    14   ar
     7    14    15   ar
     8    15     1    1
     9     1     2    2
    10     2     3    1
    11     3     4    2
    12     4     5    1
    13     5     6    1
    14     6     7    1
    15     7     8   ar
    16     8     9   ar
    17     9    23    1
    18    23    24    1
    19    24    25    1
    20    25    26    1
    21    26    27    1
    22    27    28    1
    23    27    29    1
    24    29    30    1
    25     9    10   ar
    26    10    11   ar
    27    11    12   ar
    28    15    16   ar
    29    16    17   ar
    30    17    13   ar
    31     5     1    1
    32    12     7   ar
    33    12     4    1
    34    30    24    1
@<TRIPOS>MOLECULE
*****
 30 34 0 0 0
SMALL
GASTEIGER

@<TRIPOS>ATOM
      1 C         143.1734  139.8496  159.1160 C.2     1  UNL1        0.0866
      2 N         141.9786  139.0790  158.6378 N.2     1  UNL1       -0.1523
      3 N         141.3538  138.4085  159.8252 N.2     1  UNL1       -0.1523
      4 C         142.1625  138.7647  161.0374 C.2     1  UNL1        0.0858
      5 C         143.2870  139.6554  160.5990 C.3     1  UNL1        0.0883
      6 C         144.0957  140.0116  161.8111 C.3     1  UNL1        0.0384
      7 C         143.4709  139.3411  162.9986 C.ar    1  UNL1       -0.0205
      8 C         143.8356  139.3327  164.4535 C.ar    1  UNL1       -0.0071
      9 C         143.0056  138.5537  165.4303 C.ar    1  UNL1       -0.0065
     10 C         141.8108  137.7831  164.9521 C.ar    1  UNL1       -0.0029
     11 C         141.4461  137.7915  163.4972 C.ar    1  UNL1        0.0006
     12 C         142.2762  138.5705  162.5204 C.ar    1  UNL1        0.0117
     13 C         145.4964  141.3990  156.4200 C.ar    1  UNL1        0.0710
     14 C         144.6144  140.2880  156.9077 C.ar    1  UNL1        0.0165
     15 C         144.0931  140.6704  158.2612 C.ar    1  UNL1        0.0233
     16 C         144.6528  142.0177  158.6100 C.ar    1  UNL1        0.0373
     17 S         145.5202  142.4679  157.4720 S.2     1  UNL1       -0.0780
     18 C         146.9565  141.4704  153.8003 C.1     1  UNL1       -0.0534
     19 C         146.2265  141.4347  155.1101 C.1     1  UNL1       -0.0554
     20 C         147.6865  141.5060  152.4904 C.3     1  UNL1        0.2182
     21 C         148.9103  143.7272  153.0548 C.3     1  UNL1        0.1755
     22 O         148.8562  142.4272  152.3084 O.3     1  UNL1       -0.3374
     23 C         143.3702  138.5453  166.8853 C.3     1  UNL1        0.0992
     24 N         142.6755  139.4726  167.8380 N.3     1  UNL1       -0.2665
     25 C         142.1236  140.7778  167.3460 C.3     1  UNL1        0.0899
     26 C         141.4289  141.7050  168.2987 C.3     1  UNL1        0.0897
     27 N         141.2861  141.3270  169.7433 N.3     1  UNL1       -0.2691
     28 C         140.5913  142.2543  170.6960 C.3     1  UNL1        0.0897
     29 C         141.8379  140.0219  170.2352 C.3     1  UNL1        0.0897
     30 C         142.5327  139.0947  169.2825 C.3     1  UNL1        0.0899
@<TRIPOS>BOND
     1    21    22    1
     2    22    20    1
     3    20    18    1
     4    18    19    3
     5    19    13    1
     6    13    14   ar
     7    14    15   ar
     8    15     1    1
     9     1     2    2
    10     2     3    1
    11     3     4    2
    12     4     5    1
    13     5     6    1
    14     6     7    1
    15     7     8   ar
    16     8     9   ar
    17     9    23    1
    18    23    24    1
    19    24    25    1
    20    25    26    1
    21    26    27    1
    22    27    28    1
    23    27    29    1
    24    29    30    1
    25     9    10   ar
    26    10    11   ar
    27    11    12   ar
    28    15    16   ar
    29    16    17   ar
    30    17    13   ar
    31     5     1    1
    32    12     7   ar
    33    12     4    1
    34    30    24    1
