@<TRIPOS>MOLECULE
*****
 34 37 0 0 0
SMALL
GASTEIGER

@<TRIPOS>ATOM
      1 C         139.8833  142.7025  163.6082 C.ar    1  UNL1        0.0729
      2 C         140.8271  143.4062  164.5377 C.ar    1  UNL1        0.1048
      3 N         141.1321  142.8181  165.8834 N.ar    1  UNL1       -0.2290
      4 C         140.4934  141.5263  166.2996 C.ar    1  UNL1        0.1318
      5 C         139.5496  140.8226  165.3701 C.ar    1  UNL1        0.0348
      6 C         139.2446  141.4107  164.0243 C.ar    1  UNL1        0.0090
      7 N         140.7985  140.9381  167.6454 N.pl3   1  UNL1       -0.2907
      8 C         141.8179  139.8760  167.9328 C.3     1  UNL1        0.0948
      9 C         141.7872  139.5903  169.4051 C.3     1  UNL1        0.0524
     10 C         140.7488  140.4759  170.0275 C.3     1  UNL1        0.1319
     11 O         140.3852  140.5206  171.4821 O.3     1  UNL1       -0.3827
     12 C         140.1377  141.3089  168.9400 C.3     1  UNL1        0.1213
     13 H         140.9284  139.8827  171.9709 H       1  UNL1        0.2104
     14 C         138.9109  139.5307  165.7862 C.ar    1  UNL1        0.0411
     15 C         139.2746  138.2547  165.0867 C.ar    1  UNL1        0.1023
     16 N         138.6359  136.9629  165.5029 N.ar    1  UNL1       -0.2224
     17 C         137.6335  136.9471  166.6186 C.ar    1  UNL1        0.1989
     18 N         137.2698  138.2231  167.3182 N.ar    1  UNL1       -0.2224
     19 C         137.9086  139.5149  166.9020 C.ar    1  UNL1        0.1023
     20 O         138.2981  144.0416  162.0448 O.2     1  UNL1       -0.2698
     21 C         139.5782  143.2907  162.2624 C.2     1  UNL1        0.2510
     22 N         140.5533  143.1278  161.1342 N.am    1  UNL1       -0.2803
     23 H         141.3934  142.6349  161.2770 H       1  UNL1        0.1552
     24 C         140.2482  143.7159  159.7884 C.ar    1  UNL1        0.0506
     25 C         139.4951  142.9108  158.7713 C.ar    1  UNL1        0.0152
     26 C         139.1900  143.4989  157.4256 C.ar    1  UNL1        0.0077
     27 C         139.6381  144.8922  157.0970 C.ar    1  UNL1        0.0328
     28 C         140.3912  145.6974  158.1141 C.ar    1  UNL1        0.0077
     29 C         140.6962  145.1092  159.4598 C.ar    1  UNL1        0.0152
     30 S         139.3330  145.4804  155.7512 S.3     1  UNL1       -0.0144
     31 C         139.7983  146.8662  155.4154 C.3     1  UNL1        0.4477
     32 F         138.5253  147.4291  155.9746 F       1  UNL1       -0.1600
     33 F         141.0712  146.3034  154.8562 F       1  UNL1       -0.1600
     34 F         140.2636  148.2522  155.0796 F       1  UNL1       -0.1600
@<TRIPOS>BOND
     1    20    21    2
     2    21    22   am
     3    22    24    1
     4    24    25   ar
     5    25    26   ar
     6    26    27   ar
     7    27    30    1
     8    30    31    1
     9    31    32    1
    10    31    33    1
    11    31    34    1
    12    27    28   ar
    13    28    29   ar
    14    21     1    1
    15     1     2   ar
    16     2     3   ar
    17     3     4   ar
    18     4     7    1
    19     7     8    1
    20     8     9    1
    21     9    10    1
    22    10    11    1
    23    10    12    1
    24     4     5   ar
    25     5    14    1
    26    14    15   ar
    27    15    16   ar
    28    16    17   ar
    29    17    18   ar
    30    18    19   ar
    31     5     6   ar
    32    29    24   ar
    33     6     1   ar
    34    12     7    1
    35    19    14   ar
    36    22    23    1
    37    11    13    1
@<TRIPOS>MOLECULE
*****
 34 37 0 0 0
SMALL
GASTEIGER

@<TRIPOS>ATOM
      1 C         141.1164  144.5078  161.6108 C.ar    1  UNL1        0.0729
      2 C         140.2367  145.6443  161.1816 C.ar    1  UNL1        0.1048
      3 N         139.9744  145.8805  159.7237 N.ar    1  UNL1       -0.2290
      4 C         140.5919  144.9801  158.6951 C.ar    1  UNL1        0.1318
      5 C         141.4717  143.8436  159.1243 C.ar    1  UNL1        0.0348
      6 C         141.7340  143.6075  160.5822 C.ar    1  UNL1        0.0090
      7 N         140.3296  145.2163  157.2372 N.pl3   1  UNL1       -0.2907
      8 C         141.1256  146.1085  156.3313 C.3     1  UNL1        0.0948
      9 C         140.5133  146.0454  154.9635 C.3     1  UNL1        0.0524
     10 C         139.3388  145.1143  155.0239 C.3     1  UNL1        0.1319
     11 O         138.4362  144.7581  153.8800 O.3     1  UNL1       -0.3827
     12 C         139.2253  144.6019  156.4291 C.3     1  UNL1        0.1213
     13 H         138.7270  145.2252  153.0812 H       1  UNL1        0.2104
     14 C         142.0892  142.9433  158.0957 C.ar    1  UNL1        0.0411
     15 C         141.3552  141.7202  157.6319 C.ar    1  UNL1        0.1023
     16 N         141.9727  140.8198  156.6033 N.ar    1  UNL1       -0.2224
     17 C         143.3242  141.1426  156.0385 C.ar    1  UNL1        0.1989
     18 N         144.0583  142.3657  156.5023 N.ar    1  UNL1       -0.2224
     19 C         143.4408  143.2660  157.5309 C.ar    1  UNL1        0.1023
     20 O         141.8281  145.4046  163.9431 O.2     1  UNL1       -0.2698
     21 C         141.3788  144.2716  163.0687 C.2     1  UNL1        0.2510
     22 N         141.1917  142.9025  163.6522 N.am    1  UNL1       -0.2803
     23 H         140.8968  142.1589  163.0784 H       1  UNL1        0.1552
     24 C         141.4540  142.6663  165.1102 C.ar    1  UNL1        0.0506
     25 C         142.8446  142.3602  165.5821 C.ar    1  UNL1        0.0152
     26 C         143.1068  142.1240  167.0399 C.ar    1  UNL1        0.0077
     27 C         141.9785  142.1939  168.0259 C.ar    1  UNL1        0.0328
     28 C         140.5880  142.5000  167.5540 C.ar    1  UNL1        0.0077
     29 C         140.3258  142.7362  166.0961 C.ar    1  UNL1        0.0152
     30 S         142.2408  141.9577  169.4838 S.3     1  UNL1       -0.0144
     31 C         142.9833  142.9833  170.2880 C.3     1  UNL1        0.4477
     32 F         141.7494  143.8344  170.3418 F       1  UNL1       -0.1600
     33 F         144.2172  142.1322  170.2343 F       1  UNL1       -0.1600
     34 F         143.7258  144.0090  171.0923 F       1  UNL1       -0.1600
@<TRIPOS>BOND
     1    20    21    2
     2    21    22   am
     3    22    24    1
     4    24    25   ar
     5    25    26   ar
     6    26    27   ar
     7    27    30    1
     8    30    31    1
     9    31    32    1
    10    31    33    1
    11    31    34    1
    12    27    28   ar
    13    28    29   ar
    14    21     1    1
    15     1     2   ar
    16     2     3   ar
    17     3     4   ar
    18     4     7    1
    19     7     8    1
    20     8     9    1
    21     9    10    1
    22    10    11    1
    23    10    12    1
    24     4     5   ar
    25     5    14    1
    26    14    15   ar
    27    15    16   ar
    28    16    17   ar
    29    17    18   ar
    30    18    19   ar
    31     5     6   ar
    32    29    24   ar
    33     6     1   ar
    34    12     7    1
    35    19    14   ar
    36    22    23    1
    37    11    13    1
@<TRIPOS>MOLECULE
*****
 34 37 0 0 0
SMALL
GASTEIGER

@<TRIPOS>ATOM
      1 C         142.5166  139.7939  161.7281 C.ar    1  UNL1        0.0729
      2 C         142.5105  138.5234  162.5254 C.ar    1  UNL1        0.1048
      3 N         141.6197  138.3952  163.7253 N.ar    1  UNL1       -0.2290
      4 C         140.7349  139.5376  164.1280 C.ar    1  UNL1        0.1318
      5 C         140.7410  140.8081  163.3308 C.ar    1  UNL1        0.0348
      6 C         141.6318  140.9363  162.1308 C.ar    1  UNL1        0.0090
      7 N         139.8441  139.4094  165.3281 N.pl3   1  UNL1       -0.2907
      8 C         138.4603  138.8306  165.3411 C.3     1  UNL1        0.0948
      9 C         137.9416  138.9010  166.7468 C.3     1  UNL1        0.0524
     10 C         139.0048  139.5233  167.6025 C.3     1  UNL1        0.1319
     11 O         138.9091  139.7854  169.0764 O.3     1  UNL1       -0.3827
     12 C         140.1806  139.8375  166.7257 C.3     1  UNL1        0.1213
     13 H         138.0447  139.4890  169.4020 H       1  UNL1        0.2104
     14 C         139.8563  141.9505  163.7335 C.ar    1  UNL1        0.0411
     15 C         138.4739  142.0658  163.1630 C.ar    1  UNL1        0.1023
     16 N         137.5891  143.2082  163.5657 N.ar    1  UNL1       -0.2224
     17 C         138.0868  144.2353  164.5389 C.ar    1  UNL1        0.1989
     18 N         139.4692  144.1201  165.1095 N.ar    1  UNL1       -0.2224
     19 C         140.3540  142.9777  164.7067 C.ar    1  UNL1        0.1023
     20 O         144.4842  138.9073  160.2815 O.2     1  UNL1       -0.2698
     21 C         143.4074  139.9221  160.5281 C.2     1  UNL1        0.2510
     22 N         143.2215  141.0651  159.5747 N.am    1  UNL1       -0.2803
     23 H         142.5148  141.7311  159.7365 H       1  UNL1        0.1552
     24 C         144.1124  141.1932  158.3746 C.ar    1  UNL1        0.0506
     25 C         143.9658  140.2393  157.2264 C.ar    1  UNL1        0.0152
     26 C         144.8567  140.3675  156.0265 C.ar    1  UNL1        0.0077
     27 C         145.8940  141.4497  155.9747 C.ar    1  UNL1        0.0328
     28 C         146.0406  142.4037  157.1229 C.ar    1  UNL1        0.0077
     29 C         145.1498  142.2754  158.3229 C.ar    1  UNL1        0.0152
     30 S         146.7849  141.5779  154.7747 S.3     1  UNL1       -0.0144
     31 C         147.3145  142.9228  154.3740 C.3     1  UNL1        0.4477
     32 F         145.9490  143.3180  153.8953 F       1  UNL1       -0.1600
     33 F         148.6801  142.5277  154.8527 F       1  UNL1       -0.1600
     34 F         147.8442  144.2679  153.9734 F       1  UNL1       -0.1600
@<TRIPOS>BOND
     1    20    21    2
     2    21    22   am
     3    22    24    1
     4    24    25   ar
     5    25    26   ar
     6    26    27   ar
     7    27    30    1
     8    30    31    1
     9    31    32    1
    10    31    33    1
    11    31    34    1
    12    27    28   ar
    13    28    29   ar
    14    21     1    1
    15     1     2   ar
    16     2     3   ar
    17     3     4   ar
    18     4     7    1
    19     7     8    1
    20     8     9    1
    21     9    10    1
    22    10    11    1
    23    10    12    1
    24     4     5   ar
    25     5    14    1
    26    14    15   ar
    27    15    16   ar
    28    16    17   ar
    29    17    18   ar
    30    18    19   ar
    31     5     6   ar
    32    29    24   ar
    33     6     1   ar
    34    12     7    1
    35    19    14   ar
    36    22    23    1
    37    11    13    1
@<TRIPOS>MOLECULE
*****
 34 37 0 0 0
SMALL
GASTEIGER

@<TRIPOS>ATOM
      1 C         143.3418  141.5502  158.7261 C.ar    1  UNL1        0.0729
      2 C         142.4586  142.7625  158.7430 C.ar    1  UNL1        0.1048
      3 N         141.3641  142.8788  159.7621 N.ar    1  UNL1       -0.2290
      4 C         141.1528  141.7829  160.7642 C.ar    1  UNL1        0.1318
      5 C         142.0360  140.5706  160.7473 C.ar    1  UNL1        0.0348
      6 C         143.1305  140.4543  159.7282 C.ar    1  UNL1        0.0090
      7 N         140.0582  141.8993  161.7833 N.pl3   1  UNL1       -0.2907
      8 C         140.1668  142.5689  163.1211 C.3     1  UNL1        0.0948
      9 C         138.8387  142.4500  163.8081 C.3     1  UNL1        0.0524
     10 C         137.9093  141.7068  162.8948 C.3     1  UNL1        0.1319
     11 O         136.4775  141.3642  163.1824 O.3     1  UNL1       -0.3827
     12 C         138.6631  141.3665  161.6434 C.3     1  UNL1        0.1213
     13 H         136.2351  141.6986  164.0601 H       1  UNL1        0.2104
     14 C         141.8247  139.4747  161.7494 C.ar    1  UNL1        0.0411
     15 C         142.5434  139.5129  163.0654 C.ar    1  UNL1        0.1023
     16 N         142.3321  138.4170  164.0675 N.ar    1  UNL1       -0.2224
     17 C         141.4020  137.2828  163.7537 C.ar    1  UNL1        0.1989
     18 N         140.6833  137.2445  162.4376 N.ar    1  UNL1       -0.2224
     19 C         140.8946  138.3405  161.4355 C.ar    1  UNL1        0.1023
     20 O         144.9425  140.0814  157.3012 O.2     1  UNL1       -0.2698
     21 C         144.4364  141.4338  157.7070 C.2     1  UNL1        0.2510
     22 N         145.0247  142.6699  157.0938 N.am    1  UNL1       -0.2803
     23 H         144.6925  143.5575  157.3602 H       1  UNL1        0.1552
     24 C         146.1193  142.5535  156.0748 C.ar    1  UNL1        0.0506
     25 C         147.5355  142.3330  156.5171 C.ar    1  UNL1        0.0152
     26 C         148.6300  142.2166  155.4980 C.ar    1  UNL1        0.0077
     27 C         148.3083  142.3207  154.0366 C.ar    1  UNL1        0.0328
     28 C         146.8921  142.5412  153.5943 C.ar    1  UNL1        0.0077
     29 C         145.7976  142.6576  154.6134 C.ar    1  UNL1        0.0152
     30 S         149.4028  142.2043  153.0176 S.3     1  UNL1       -0.0144
     31 C         150.4927  143.2337  152.9666 C.3     1  UNL1        0.4477
     32 F         151.5179  142.1433  152.8674 F       1  UNL1       -0.1600
     33 F         149.4674  144.3241  153.0658 F       1  UNL1       -0.1600
     34 F         151.5826  144.2631  152.9156 F       1  UNL1       -0.1600
@<TRIPOS>BOND
     1    20    21    2
     2    21    22   am
     3    22    24    1
     4    24    25   ar
     5    25    26   ar
     6    26    27   ar
     7    27    30    1
     8    30    31    1
     9    31    32    1
    10    31    33    1
    11    31    34    1
    12    27    28   ar
    13    28    29   ar
    14    21     1    1
    15     1     2   ar
    16     2     3   ar
    17     3     4   ar
    18     4     7    1
    19     7     8    1
    20     8     9    1
    21     9    10    1
    22    10    11    1
    23    10    12    1
    24     4     5   ar
    25     5    14    1
    26    14    15   ar
    27    15    16   ar
    28    16    17   ar
    29    17    18   ar
    30    18    19   ar
    31     5     6   ar
    32    29    24   ar
    33     6     1   ar
    34    12     7    1
    35    19    14   ar
    36    22    23    1
    37    11    13    1
@<TRIPOS>MOLECULE
*****
 34 37 0 0 0
SMALL
GASTEIGER

@<TRIPOS>ATOM
      1 C         142.1175  139.5275  161.8264 C.ar    1  UNL1        0.0729
      2 C         143.4105  138.8348  161.5129 C.ar    1  UNL1        0.1048
      3 N         143.7361  138.4590  160.0978 N.ar    1  UNL1       -0.2290
      4 C         142.7687  138.7758  158.9961 C.ar    1  UNL1        0.1318
      5 C         141.4756  139.4684  159.3095 C.ar    1  UNL1        0.0348
      6 C         141.1501  139.8443  160.7247 C.ar    1  UNL1        0.0090
      7 N         143.0943  138.3999  157.5809 N.pl3   1  UNL1       -0.2907
      8 C         143.5971  139.3284  156.5154 C.3     1  UNL1        0.0948
      9 C         143.7879  138.5319  155.2588 C.3     1  UNL1        0.0524
     10 C         143.4031  137.1111  155.5476 C.3     1  UNL1        0.1319
     11 O         143.4403  135.9719  154.5724 O.3     1  UNL1       -0.3827
     12 C         142.9744  137.0296  156.9827 C.3     1  UNL1        0.1213
     13 H         143.7549  136.2925  153.7126 H       1  UNL1        0.2104
     14 C         140.5082  139.7852  158.2078 C.ar    1  UNL1        0.0411
     15 C         140.4401  141.1743  157.6459 C.ar    1  UNL1        0.1023
     16 N         139.4726  141.4910  156.5442 N.ar    1  UNL1       -0.2224
     17 C         138.5734  140.4187  156.0044 C.ar    1  UNL1        0.1989
     18 N         138.6415  139.0297  156.5663 N.ar    1  UNL1       -0.2224
     19 C         139.6089  138.7129  157.6680 C.ar    1  UNL1        0.1023
     20 O         141.4999  141.3329  163.5896 O.2     1  UNL1       -0.2698
     21 C         141.7918  139.9034  163.2416 C.2     1  UNL1        0.2510
     22 N         141.7581  138.8497  164.3086 N.am    1  UNL1       -0.2803
     23 H         141.9498  137.9115  164.0802 H       1  UNL1        0.1552
     24 C         141.4325  139.2256  165.7238 C.ar    1  UNL1        0.0506
     25 C         142.5322  139.3688  166.7338 C.ar    1  UNL1        0.0152
     26 C         142.2065  139.7447  168.1489 C.ar    1  UNL1        0.0077
     27 C         140.7811  139.9774  168.5541 C.ar    1  UNL1        0.0328
     28 C         139.6814  139.8342  167.5441 C.ar    1  UNL1        0.0077
     29 C         140.0071  139.4584  166.1290 C.ar    1  UNL1        0.0152
     30 S         140.4554  140.3533  169.9693 S.3     1  UNL1       -0.0144
     31 C         139.9186  141.7195  170.2778 C.3     1  UNL1        0.4477
     32 F         141.3152  142.2666  170.2850 F       1  UNL1       -0.1600
     33 F         138.5220  141.1724  170.2707 F       1  UNL1       -0.1600
     34 F         139.3818  143.0858  170.5864 F       1  UNL1       -0.1600
@<TRIPOS>BOND
     1    20    21    2
     2    21    22   am
     3    22    24    1
     4    24    25   ar
     5    25    26   ar
     6    26    27   ar
     7    27    30    1
     8    30    31    1
     9    31    32    1
    10    31    33    1
    11    31    34    1
    12    27    28   ar
    13    28    29   ar
    14    21     1    1
    15     1     2   ar
    16     2     3   ar
    17     3     4   ar
    18     4     7    1
    19     7     8    1
    20     8     9    1
    21     9    10    1
    22    10    11    1
    23    10    12    1
    24     4     5   ar
    25     5    14    1
    26    14    15   ar
    27    15    16   ar
    28    16    17   ar
    29    17    18   ar
    30    18    19   ar
    31     5     6   ar
    32    29    24   ar
    33     6     1   ar
    34    12     7    1
    35    19    14   ar
    36    22    23    1
    37    11    13    1
@<TRIPOS>MOLECULE
*****
 34 37 0 0 0
SMALL
GASTEIGER

@<TRIPOS>ATOM
      1 C         141.8602  142.7761  163.6642 C.ar    1  UNL1        0.0729
      2 C         142.7959  143.2283  164.7459 C.ar    1  UNL1        0.1048
      3 N         142.7962  142.5342  166.0756 N.ar    1  UNL1       -0.2290
      4 C         141.8609  141.3881  166.3237 C.ar    1  UNL1        0.1318
      5 C         140.9253  140.9359  165.2420 C.ar    1  UNL1        0.0348
      6 C         140.9249  141.6300  163.9122 C.ar    1  UNL1        0.0090
      7 N         141.8612  140.6941  167.6535 N.pl3   1  UNL1       -0.2907
      8 C         141.0007  141.0445  168.8311 C.3     1  UNL1        0.0948
      9 C         141.3298  140.0949  169.9446 C.3     1  UNL1        0.0524
     10 C         142.3937  139.1575  169.4552 C.3     1  UNL1        0.1319
     11 O         143.0193  138.0451  170.2434 O.3     1  UNL1       -0.3827
     12 C         142.7221  139.5279  168.0392 C.3     1  UNL1        0.1213
     13 H         142.6296  138.0190  171.1312 H       1  UNL1        0.2104
     14 C         139.9899  139.7898  165.4901 C.ar    1  UNL1        0.0411
     15 C         140.3799  138.4010  165.0788 C.ar    1  UNL1        0.1023
     16 N         139.4446  137.2549  165.3268 N.ar    1  UNL1       -0.2224
     17 C         138.1193  137.4975  165.9862 C.ar    1  UNL1        0.1989
     18 N         137.7294  138.8863  166.3975 N.ar    1  UNL1       -0.2224
     19 C         138.6647  140.0324  166.1494 C.ar    1  UNL1        0.1023
     20 O         142.8811  144.5289  162.0406 O.2     1  UNL1       -0.2698
     21 C         141.8599  143.4701  162.3343 C.2     1  UNL1        0.2510
     22 N         140.8384  143.1054  161.2983 N.am    1  UNL1       -0.2803
     23 H         140.1682  142.4105  161.4910 H       1  UNL1        0.1552
     24 C         140.8380  143.7994  159.9684 C.ar    1  UNL1        0.0506
     25 C         140.3145  145.2003  159.8537 C.ar    1  UNL1        0.0152
     26 C         140.3142  145.8943  158.5239 C.ar    1  UNL1        0.0077
     27 C         140.8374  145.1873  157.3088 C.ar    1  UNL1        0.0328
     28 C         141.3609  143.7863  157.4235 C.ar    1  UNL1        0.0077
     29 C         141.3612  143.0924  158.7533 C.ar    1  UNL1        0.0152
     30 S         140.8370  145.8813  155.9790 S.3     1  UNL1       -0.0144
     31 C         139.5562  146.4214  155.4152 C.3     1  UNL1        0.4477
     32 F         140.2389  147.7216  155.1099 F       1  UNL1       -0.1600
     33 F         138.8735  145.1211  155.7205 F       1  UNL1       -0.1600
     34 F         138.2754  146.9615  154.8514 F       1  UNL1       -0.1600
@<TRIPOS>BOND
     1    20    21    2
     2    21    22   am
     3    22    24    1
     4    24    25   ar
     5    25    26   ar
     6    26    27   ar
     7    27    30    1
     8    30    31    1
     9    31    32    1
    10    31    33    1
    11    31    34    1
    12    27    28   ar
    13    28    29   ar
    14    21     1    1
    15     1     2   ar
    16     2     3   ar
    17     3     4   ar
    18     4     7    1
    19     7     8    1
    20     8     9    1
    21     9    10    1
    22    10    11    1
    23    10    12    1
    24     4     5   ar
    25     5    14    1
    26    14    15   ar
    27    15    16   ar
    28    16    17   ar
    29    17    18   ar
    30    18    19   ar
    31     5     6   ar
    32    29    24   ar
    33     6     1   ar
    34    12     7    1
    35    19    14   ar
    36    22    23    1
    37    11    13    1
@<TRIPOS>MOLECULE
*****
 34 37 0 0 0
SMALL
GASTEIGER

@<TRIPOS>ATOM
      1 C         143.2084  139.6799  158.4507 C.ar    1  UNL1        0.0729
      2 C         143.1896  141.0995  157.9667 C.ar    1  UNL1        0.1048
      3 N         143.1912  142.2286  158.9541 N.ar    1  UNL1       -0.2290
      4 C         143.2114  141.9381  160.4256 C.ar    1  UNL1        0.1318
      5 C         143.2302  140.5185  160.9096 C.ar    1  UNL1        0.0348
      6 C         143.2287  139.3894  159.9222 C.ar    1  UNL1        0.0090
      7 N         143.2130  143.0673  161.4130 N.pl3   1  UNL1       -0.2907
      8 C         144.4079  143.5875  162.1557 C.3     1  UNL1        0.0948
      9 C         143.9534  144.7162  163.0328 C.3     1  UNL1        0.0524
     10 C         142.4774  144.8936  162.8322 C.3     1  UNL1        0.1319
     11 O         141.6111  145.9114  163.5132 O.3     1  UNL1       -0.3827
     12 C         142.0199  143.8745  161.8312 C.3     1  UNL1        0.1213
     13 H         142.1530  146.4479  164.1128 H       1  UNL1        0.2104
     14 C         143.2505  140.2280  162.3811 C.ar    1  UNL1        0.0411
     15 C         144.5542  139.9707  163.0769 C.ar    1  UNL1        0.1023
     16 N         144.5744  139.6802  164.5483 N.ar    1  UNL1       -0.2224
     17 C         143.2910  139.6470  165.3240 C.ar    1  UNL1        0.1989
     18 N         141.9874  139.9043  164.6282 N.ar    1  UNL1       -0.2224
     19 C         141.9671  140.1948  163.1568 C.ar    1  UNL1        0.1023
     20 O         144.0329  138.6451  156.2148 O.2     1  UNL1       -0.2698
     21 C         143.2068  138.5507  157.4633 C.2     1  UNL1        0.2510
     22 N         142.3793  137.3272  157.7243 N.am    1  UNL1       -0.2803
     23 H         141.8371  137.2653  158.5438 H       1  UNL1        0.1552
     24 C         142.3778  136.1980  156.7369 C.ar    1  UNL1        0.0506
     25 C         141.2897  136.1022  155.7088 C.ar    1  UNL1        0.0152
     26 C         141.2882  134.9730  154.7215 C.ar    1  UNL1        0.0077
     27 C         142.3748  133.9397  154.7621 C.ar    1  UNL1        0.0328
     28 C         143.4628  134.0355  155.7902 C.ar    1  UNL1        0.0077
     29 C         143.4643  135.1647  156.7776 C.ar    1  UNL1        0.0152
     30 S         142.3733  132.8105  153.7747 S.3     1  UNL1       -0.0144
     31 C         142.5572  131.3994  154.2488 C.3     1  UNL1        0.4477
     32 F         143.7961  131.2796  153.4117 F       1  UNL1       -0.1600
     33 F         141.3183  131.5191  155.0858 F       1  UNL1       -0.1600
     34 F         142.7412  129.9881  154.7229 F       1  UNL1       -0.1600
@<TRIPOS>BOND
     1    20    21    2
     2    21    22   am
     3    22    24    1
     4    24    25   ar
     5    25    26   ar
     6    26    27   ar
     7    27    30    1
     8    30    31    1
     9    31    32    1
    10    31    33    1
    11    31    34    1
    12    27    28   ar
    13    28    29   ar
    14    21     1    1
    15     1     2   ar
    16     2     3   ar
    17     3     4   ar
    18     4     7    1
    19     7     8    1
    20     8     9    1
    21     9    10    1
    22    10    11    1
    23    10    12    1
    24     4     5   ar
    25     5    14    1
    26    14    15   ar
    27    15    16   ar
    28    16    17   ar
    29    17    18   ar
    30    18    19   ar
    31     5     6   ar
    32    29    24   ar
    33     6     1   ar
    34    12     7    1
    35    19    14   ar
    36    22    23    1
    37    11    13    1
@<TRIPOS>MOLECULE
*****
 34 37 0 0 0
SMALL
GASTEIGER

@<TRIPOS>ATOM
      1 C         140.6894  143.1345  162.3446 C.ar    1  UNL1        0.0729
      2 C         139.6922  144.2281  162.1006 C.ar    1  UNL1        0.1048
      3 N         139.4905  144.7635  160.7141 N.ar    1  UNL1       -0.2290
      4 C         140.2859  144.2052  159.5714 C.ar    1  UNL1        0.1318
      5 C         141.2831  143.1116  159.8154 C.ar    1  UNL1        0.0348
      6 C         141.4848  142.5762  161.2019 C.ar    1  UNL1        0.0090
      7 N         140.0841  144.7406  158.1848 N.pl3   1  UNL1       -0.2907
      8 C         139.3818  144.0371  157.0615 C.3     1  UNL1        0.0948
      9 C         139.4128  144.9351  155.8605 C.3     1  UNL1        0.0524
     10 C         140.1344  146.1938  156.2416 C.3     1  UNL1        0.1319
     11 O         140.3953  147.3668  155.3437 O.3     1  UNL1       -0.3827
     12 C         140.5493  146.0736  157.6780 C.3     1  UNL1        0.1213
     13 H         140.0233  147.1907  154.4653 H       1  UNL1        0.2104
     14 C         142.0786  142.5533  158.6727 C.ar    1  UNL1        0.0411
     15 C         143.3253  143.2507  158.2154 C.ar    1  UNL1        0.1023
     16 N         144.1208  142.6924  157.0728 N.ar    1  UNL1       -0.2224
     17 C         143.6695  141.4368  156.3875 C.ar    1  UNL1        0.1989
     18 N         142.4227  140.7394  156.8448 N.ar    1  UNL1       -0.2224
     19 C         141.6272  141.2977  157.9874 C.ar    1  UNL1        0.1023
     20 O         142.2563  142.1650  164.1763 O.2     1  UNL1       -0.2698
     21 C         140.8912  142.5990  163.7312 C.2     1  UNL1        0.2510
     22 N         139.7279  142.4976  164.6727 N.am    1  UNL1       -0.2803
     23 H         138.8319  142.7825  164.3805 H       1  UNL1        0.1552
     24 C         139.9296  141.9622  166.0593 C.ar    1  UNL1        0.0506
     25 C         139.5784  140.5378  166.3717 C.ar    1  UNL1        0.0152
     26 C         139.7802  140.0024  167.7583 C.ar    1  UNL1        0.0077
     27 C         140.3332  140.8915  168.8325 C.ar    1  UNL1        0.0328
     28 C         140.6844  142.3159  168.5200 C.ar    1  UNL1        0.0077
     29 C         140.4826  142.8513  167.1334 C.ar    1  UNL1        0.0152
     30 S         140.5350  140.3561  170.2191 S.3     1  UNL1       -0.0144
     31 C         141.9203  140.0727  170.7194 C.3     1  UNL1        0.4477
     32 F         141.9245  138.7725  169.9716 F       1  UNL1       -0.1600
     33 F         141.9162  141.3730  171.4672 F       1  UNL1       -0.1600
     34 F         143.3058  139.7893  171.2198 F       1  UNL1       -0.1600
@<TRIPOS>BOND
     1    20    21    2
     2    21    22   am
     3    22    24    1
     4    24    25   ar
     5    25    26   ar
     6    26    27   ar
     7    27    30    1
     8    30    31    1
     9    31    32    1
    10    31    33    1
    11    31    34    1
    12    27    28   ar
    13    28    29   ar
    14    21     1    1
    15     1     2   ar
    16     2     3   ar
    17     3     4   ar
    18     4     7    1
    19     7     8    1
    20     8     9    1
    21     9    10    1
    22    10    11    1
    23    10    12    1
    24     4     5   ar
    25     5    14    1
    26    14    15   ar
    27    15    16   ar
    28    16    17   ar
    29    17    18   ar
    30    18    19   ar
    31     5     6   ar
    32    29    24   ar
    33     6     1   ar
    34    12     7    1
    35    19    14   ar
    36    22    23    1
    37    11    13    1
@<TRIPOS>MOLECULE
*****
 34 37 0 0 0
SMALL
GASTEIGER

@<TRIPOS>ATOM
      1 C         142.4307  142.7018  164.0201 C.ar    1  UNL1        0.0729
      2 C         143.3129  143.1288  165.1556 C.ar    1  UNL1        0.1048
      3 N         143.1728  142.4783  166.4998 N.ar    1  UNL1       -0.2290
      4 C         142.1504  141.4008  166.7087 C.ar    1  UNL1        0.1318
      5 C         141.2682  140.9737  165.5733 C.ar    1  UNL1        0.0348
      6 C         141.4083  141.6242  164.2290 C.ar    1  UNL1        0.0090
      7 N         142.0104  140.7503  168.0531 N.pl3   1  UNL1       -0.2907
      8 C         142.5736  139.4181  168.4510 C.3     1  UNL1        0.0948
      9 C         142.1938  139.1622  169.8793 C.3     1  UNL1        0.0524
     10 C         141.3958  140.3362  170.3642 C.3     1  UNL1        0.1319
     11 O         140.8135  140.4999  171.7369 O.3     1  UNL1       -0.3827
     12 C         141.2825  141.3176  169.2356 C.3     1  UNL1        0.1213
     13 H         141.0314  139.7231  172.2753 H       1  UNL1        0.2104
     14 C         140.2458  139.8961  165.7822 C.ar    1  UNL1        0.0411
     15 C         140.3495  138.6067  165.0230 C.ar    1  UNL1        0.1023
     16 N         139.3271  137.5291  165.2319 N.ar    1  UNL1       -0.2224
     17 C         138.2011  137.7410  166.1999 C.ar    1  UNL1        0.1989
     18 N         138.0975  139.0305  166.9591 N.ar    1  UNL1       -0.2224
     19 C         139.1199  140.1081  166.7502 C.ar    1  UNL1        0.1023
     20 O         143.6652  144.3496  162.4355 O.2     1  UNL1       -0.2698
     21 C         142.5708  143.3523  162.6758 C.2     1  UNL1        0.2510
     22 N         141.6164  143.0056  161.5717 N.am    1  UNL1       -0.2803
     23 H         140.8981  142.3510  161.7294 H       1  UNL1        0.1552
     24 C         141.7565  143.6561  160.2273 C.ar    1  UNL1        0.0506
     25 C         142.6899  143.0754  159.2068 C.ar    1  UNL1        0.0152
     26 C         142.8299  143.7259  157.8625 C.ar    1  UNL1        0.0077
     27 C         142.0366  144.9571  157.5387 C.ar    1  UNL1        0.0328
     28 C         141.1033  145.5378  158.5593 C.ar    1  UNL1        0.0077
     29 C         140.9632  144.8873  159.9036 C.ar    1  UNL1        0.0152
     30 S         142.1767  145.6076  156.1944 S.3     1  UNL1       -0.0144
     31 C         142.0158  144.7918  154.9460 C.3     1  UNL1        0.4477
     32 F         143.4097  145.1560  154.5284 F       1  UNL1       -0.1600
     33 F         140.6220  144.4276  155.3636 F       1  UNL1       -0.1600
     34 F         141.8550  143.9759  153.6975 F       1  UNL1       -0.1600
@<TRIPOS>BOND
     1    20    21    2
     2    21    22   am
     3    22    24    1
     4    24    25   ar
     5    25    26   ar
     6    26    27   ar
     7    27    30    1
     8    30    31    1
     9    31    32    1
    10    31    33    1
    11    31    34    1
    12    27    28   ar
    13    28    29   ar
    14    21     1    1
    15     1     2   ar
    16     2     3   ar
    17     3     4   ar
    18     4     7    1
    19     7     8    1
    20     8     9    1
    21     9    10    1
    22    10    11    1
    23    10    12    1
    24     4     5   ar
    25     5    14    1
    26    14    15   ar
    27    15    16   ar
    28    16    17   ar
    29    17    18   ar
    30    18    19   ar
    31     5     6   ar
    32    29    24   ar
    33     6     1   ar
    34    12     7    1
    35    19    14   ar
    36    22    23    1
    37    11    13    1
