@<TRIPOS>MOLECULE
*****
 30 33 0 0 0
SMALL
GASTEIGER

@<TRIPOS>ATOM
      1 N         138.6768  140.1762  160.1320 N.pl3   1  UNL1       -0.2847
      2 C         138.3948  140.7451  161.4909 C.3     1  UNL1        0.1141
      3 C         138.9047  140.0471  162.7168 C.3     1  UNL1        0.1149
      4 N         139.6966  138.7802  162.5837 N.am    1  UNL1       -0.2760
      5 C         140.2065  138.0822  163.8097 C.2     1  UNL1        0.2257
      6 O         140.9984  136.8152  163.6766 O.2     1  UNL1       -0.2749
      7 C         139.9786  138.2112  161.2248 C.3     1  UNL1        0.1149
      8 C         139.4687  138.9092  159.9990 C.3     1  UNL1        0.1141
      9 C         139.9245  138.6511  165.1686 C.3     1  UNL1        0.0853
     10 C         138.5547  138.5221  165.7662 C.3     1  UNL1        0.0096
     11 C         138.2727  139.0911  167.1252 C.3     1  UNL1        0.0005
     12 C         139.3605  139.7891  167.8865 C.3     1  UNL1        0.0005
     13 C         140.7302  139.9181  167.2889 C.3     1  UNL1        0.0096
     14 C         141.0122  139.3492  165.9300 C.3     1  UNL1        0.0851
     15 C         142.3820  139.4782  165.3323 C.2     1  UNL1        0.2231
     16 O         143.4640  138.5151  165.7220 O.2     1  UNL1       -0.2751
     17 N         142.6697  140.5702  164.3451 N.am    1  UNL1       -0.2959
     18 H         141.9596  141.2023  164.0894 H       1  UNL1        0.1502
     19 C         144.0395  140.6992  163.7475 C.3     1  UNL1        0.1364
     20 C         145.4168  141.2301  163.4813 C.3     1  UNL1        0.0353
     21 C         144.5373  141.9011  164.4942 C.3     1  UNL1        0.0353
     22 C         144.0173  139.5422  162.7932 C.1     1  UNL1        0.0896
     23 N         143.9953  138.3851  161.8390 N.1     1  UNL1       -0.1943
     24 C         136.9571  141.3522  156.8571 C.ar    1  UNL1        0.0674
     25 C         137.8077  142.5443  157.1821 C.ar    1  UNL1        0.0528
     26 S         138.5554  142.2488  158.4484 S.2     1  UNL1       -0.0513
     27 C         138.1670  140.8742  158.9061 C.ar    1  UNL1        0.1628
     28 N         137.1792  140.3200  157.9226 N.ar    1  UNL1       -0.2284
     29 C         134.7102  140.5492  155.8293 C.3     1  UNL1        0.0067
     30 C         136.0447  141.2163  155.6743 C.3     1  UNL1        0.0464
@<TRIPOS>BOND
     1    29    30    1
     2    30    24    1
     3    24    25   ar
     4    25    26   ar
     5    26    27   ar
     6    27     1    1
     7     1     2    1
     8     2     3    1
     9     3     4    1
    10     4     5   am
    11     5     6    2
    12     9     5    1
    13     9    10    1
    14    10    11    1
    15    11    12    1
    16    12    13    1
    17    13    14    1
    18    14    15    1
    19    15    16    2
    20    15    17   am
    21    17    19    1
    22    19    22    1
    23    22    23    3
    24    19    20    1
    25    20    21    1
    26     4     7    1
    27     7     8    1
    28    27    28   ar
    29    28    24   ar
    30     8     1    1
    31    14     9    1
    32    21    19    1
    33    17    18    1
@<TRIPOS>MOLECULE
*****
 30 33 0 0 0
SMALL
GASTEIGER

@<TRIPOS>ATOM
      1 N         143.5198  140.6718  161.5098 N.pl3   1  UNL1       -0.2847
      2 C         142.0971  140.2715  161.7657 C.3     1  UNL1        0.1141
      3 C         141.6629  139.8890  163.1496 C.3     1  UNL1        0.1149
      4 N         142.6515  139.9069  164.2776 N.am    1  UNL1       -0.2760
      5 C         142.2172  139.5244  165.6615 C.2     1  UNL1        0.2257
      6 O         143.2058  139.5422  166.7895 O.2     1  UNL1       -0.2749
      7 C         144.0742  140.3071  164.0217 C.3     1  UNL1        0.1149
      8 C         144.5084  140.6896  162.6378 C.3     1  UNL1        0.1141
      9 C         140.7945  139.1241  165.9174 C.3     1  UNL1        0.0853
     10 C         140.1994  137.9592  165.1832 C.3     1  UNL1        0.0096
     11 C         138.7766  137.5590  165.4391 C.3     1  UNL1        0.0005
     12 C         137.9489  138.3236  166.4292 C.3     1  UNL1        0.0005
     13 C         138.5439  139.4884  167.1633 C.3     1  UNL1        0.0096
     14 C         139.9667  139.8887  166.9075 C.3     1  UNL1        0.0851
     15 C         140.5617  141.0536  167.6416 C.2     1  UNL1        0.2231
     16 O         140.5261  142.4229  167.0302 O.2     1  UNL1       -0.2751
     17 N         141.1923  140.8492  168.9872 N.am    1  UNL1       -0.2959
     18 H         141.2157  139.9505  169.3884 H       1  UNL1        0.1502
     19 C         141.7874  142.0141  169.7213 C.3     1  UNL1        0.1364
     20 C         142.8099  142.9878  170.2273 C.3     1  UNL1        0.0353
     21 C         143.2251  141.8684  169.3194 C.3     1  UNL1        0.0353
     22 C         140.5562  142.5644  170.3782 C.1     1  UNL1        0.0896
     23 N         139.3251  143.1146  171.0352 N.1     1  UNL1       -0.1943
     24 C         144.5565  140.9283  157.7782 C.ar    1  UNL1        0.0674
     25 C         144.6881  142.3575  158.2145 C.ar    1  UNL1        0.0528
     26 S         144.3158  142.4353  159.6654 S.2     1  UNL1       -0.0513
     27 C         143.9541  141.0543  160.1259 C.ar    1  UNL1        0.1628
     28 N         144.1028  140.1229  158.9595 N.ar    1  UNL1       -0.2284
     29 C         146.0236  140.8845  155.6344 C.3     1  UNL1        0.0067
     30 C         144.8305  140.3978  156.4021 C.3     1  UNL1        0.0464
@<TRIPOS>BOND
     1    29    30    1
     2    30    24    1
     3    24    25   ar
     4    25    26   ar
     5    26    27   ar
     6    27     1    1
     7     1     2    1
     8     2     3    1
     9     3     4    1
    10     4     5   am
    11     5     6    2
    12     9     5    1
    13     9    10    1
    14    10    11    1
    15    11    12    1
    16    12    13    1
    17    13    14    1
    18    14    15    1
    19    15    16    2
    20    15    17   am
    21    17    19    1
    22    19    22    1
    23    22    23    3
    24    19    20    1
    25    20    21    1
    26     4     7    1
    27     7     8    1
    28    27    28   ar
    29    28    24   ar
    30     8     1    1
    31    14     9    1
    32    21    19    1
    33    17    18    1
@<TRIPOS>MOLECULE
*****
 30 33 0 0 0
SMALL
GASTEIGER

@<TRIPOS>ATOM
      1 N         140.6455  144.5597  160.2418 N.pl3   1  UNL1       -0.2847
      2 C         140.4731  143.0958  160.5196 C.3     1  UNL1        0.1141
      3 C         140.1887  142.6257  161.9153 C.3     1  UNL1        0.1149
      4 N         140.0769  143.6196  163.0333 N.am    1  UNL1       -0.2760
      5 C         139.7925  143.1494  164.4291 C.2     1  UNL1        0.2257
      6 O         139.6806  144.1433  165.5470 O.2     1  UNL1       -0.2749
      7 C         140.2493  145.0835  162.7554 C.3     1  UNL1        0.1149
      8 C         140.5337  145.5535  161.3597 C.3     1  UNL1        0.1141
      9 C         139.6200  141.6855  164.7069 C.3     1  UNL1        0.0853
     10 C         138.2434  141.1000  164.8162 C.3     1  UNL1        0.0096
     11 C         138.0710  139.6360  165.0940 C.3     1  UNL1        0.0005
     12 C         139.2751  138.7577  165.2625 C.3     1  UNL1        0.0005
     13 C         140.6518  139.3432  165.1531 C.3     1  UNL1        0.0096
     14 C         140.8242  140.8071  164.8753 C.3     1  UNL1        0.0851
     15 C         142.2009  141.3927  164.7659 C.2     1  UNL1        0.2231
     16 O         142.7075  142.3215  165.8293 O.2     1  UNL1       -0.2751
     17 N         143.0709  141.0495  163.5933 N.am    1  UNL1       -0.2959
     18 H         142.7384  140.4399  162.8953 H       1  UNL1        0.1502
     19 C         144.4476  141.6350  163.4839 C.3     1  UNL1        0.1364
     20 C         145.9378  141.7630  163.5960 C.3     1  UNL1        0.0353
     21 C         145.2530  140.5207  164.0836 C.3     1  UNL1        0.0353
     22 C         144.1203  142.9527  162.8462 C.1     1  UNL1        0.0896
     23 N         143.7929  144.2703  162.2085 N.1     1  UNL1       -0.1943
     24 C         140.7029  146.1003  156.6796 C.ar    1  UNL1        0.0674
     25 C         142.0322  145.4062  156.7166 C.ar    1  UNL1        0.0528
     26 S         142.1724  144.7446  158.0555 S.2     1  UNL1       -0.0513
     27 C         140.9299  145.0298  158.8460 C.ar    1  UNL1        0.1628
     28 N         140.0217  145.8677  157.9956 N.ar    1  UNL1       -0.2284
     29 C         139.0290  147.8578  155.7527 C.3     1  UNL1        0.0067
     30 C         140.1516  146.8886  155.5287 C.3     1  UNL1        0.0464
@<TRIPOS>BOND
     1    29    30    1
     2    30    24    1
     3    24    25   ar
     4    25    26   ar
     5    26    27   ar
     6    27     1    1
     7     1     2    1
     8     2     3    1
     9     3     4    1
    10     4     5   am
    11     5     6    2
    12     9     5    1
    13     9    10    1
    14    10    11    1
    15    11    12    1
    16    12    13    1
    17    13    14    1
    18    14    15    1
    19    15    16    2
    20    15    17   am
    21    17    19    1
    22    19    22    1
    23    22    23    3
    24    19    20    1
    25    20    21    1
    26     4     7    1
    27     7     8    1
    28    27    28   ar
    29    28    24   ar
    30     8     1    1
    31    14     9    1
    32    21    19    1
    33    17    18    1
@<TRIPOS>MOLECULE
*****
 30 33 0 0 0
SMALL
GASTEIGER

@<TRIPOS>ATOM
      1 N         139.8325  138.9701  159.9244 N.pl3   1  UNL1       -0.2847
      2 C         139.9737  140.4167  160.2947 C.3     1  UNL1        0.1141
      3 C         139.5894  140.8802  161.6685 C.3     1  UNL1        0.1149
      4 N         139.0639  139.8969  162.6720 N.am    1  UNL1       -0.2760
      5 C         138.6796  140.3604  164.0459 C.2     1  UNL1        0.2257
      6 O         138.1541  139.3772  165.0495 O.2     1  UNL1       -0.2749
      7 C         138.9227  138.4503  162.3017 C.3     1  UNL1        0.1149
      8 C         139.3070  137.9868  160.9279 C.3     1  UNL1        0.1141
      9 C         138.8208  141.8071  164.4162 C.3     1  UNL1        0.0853
     10 C         137.6402  142.7266  164.3123 C.3     1  UNL1        0.0096
     11 C         137.7815  144.1733  164.6826 C.3     1  UNL1        0.0005
     12 C         139.1032  144.7005  165.1569 C.3     1  UNL1        0.0005
     13 C         140.2838  143.7810  165.2609 C.3     1  UNL1        0.0096
     14 C         140.1426  142.3344  164.8906 C.3     1  UNL1        0.0851
     15 C         141.3232  141.4149  164.9945 C.2     1  UNL1        0.2231
     16 O         141.4795  140.5277  166.1940 O.2     1  UNL1       -0.2751
     17 N         142.3474  141.3825  163.8992 N.am    1  UNL1       -0.2959
     18 H         142.2447  141.9647  163.1120 H       1  UNL1        0.1502
     19 C         143.5279  140.4630  164.0031 C.3     1  UNL1        0.1364
     20 C         144.9239  139.9868  164.2758 C.3     1  UNL1        0.0353
     21 C         144.5583  141.4200  164.5250 C.3     1  UNL1        0.0353
     22 C         142.9076  139.1866  163.5174 C.1     1  UNL1        0.0896
     23 N         142.2871  137.9103  163.0316 N.1     1  UNL1       -0.1943
     24 C         140.0833  137.7407  156.2513 C.ar    1  UNL1        0.0674
     25 C         141.5332  137.8460  156.6213 C.ar    1  UNL1        0.0528
     26 S         141.6157  138.3193  158.0423 S.2     1  UNL1       -0.0513
     27 C         140.2168  138.5066  158.5504 C.ar    1  UNL1        0.1628
     28 N         139.2698  138.1490  157.4435 N.ar    1  UNL1       -0.2284
     29 C         138.1007  137.5442  154.5838 C.3     1  UNL1        0.0067
     30 C         139.5421  137.3039  154.9223 C.3     1  UNL1        0.0464
@<TRIPOS>BOND
     1    29    30    1
     2    30    24    1
     3    24    25   ar
     4    25    26   ar
     5    26    27   ar
     6    27     1    1
     7     1     2    1
     8     2     3    1
     9     3     4    1
    10     4     5   am
    11     5     6    2
    12     9     5    1
    13     9    10    1
    14    10    11    1
    15    11    12    1
    16    12    13    1
    17    13    14    1
    18    14    15    1
    19    15    16    2
    20    15    17   am
    21    17    19    1
    22    19    22    1
    23    22    23    3
    24    19    20    1
    25    20    21    1
    26     4     7    1
    27     7     8    1
    28    27    28   ar
    29    28    24   ar
    30     8     1    1
    31    14     9    1
    32    21    19    1
    33    17    18    1
@<TRIPOS>MOLECULE
*****
 30 33 0 0 0
SMALL
GASTEIGER

@<TRIPOS>ATOM
      1 N         140.0464  138.9720  159.9705 N.pl3   1  UNL1       -0.2847
      2 C         140.5119  138.6565  161.3611 C.3     1  UNL1        0.1141
      3 C         139.8283  139.2818  162.5408 C.3     1  UNL1        0.1149
      4 N         138.6792  140.2226  162.3299 N.am    1  UNL1       -0.2760
      5 C         137.9956  140.8479  163.5096 C.2     1  UNL1        0.2257
      6 O         136.8465  141.7887  163.2987 O.2     1  UNL1       -0.2749
      7 C         138.2137  140.5381  160.9393 C.3     1  UNL1        0.1149
      8 C         138.8973  139.9128  159.7596 C.3     1  UNL1        0.1141
      9 C         138.4611  140.5324  164.9002 C.3     1  UNL1        0.0853
     10 C         137.9760  139.2921  165.5902 C.3     1  UNL1        0.0096
     11 C         138.4416  138.9766  166.9809 C.3     1  UNL1        0.0005
     12 C         139.3922  139.9015  167.6814 C.3     1  UNL1        0.0005
     13 C         139.8774  141.1419  166.9914 C.3     1  UNL1        0.0096
     14 C         139.4118  141.4573  165.6008 C.3     1  UNL1        0.0851
     15 C         139.8970  142.6977  164.9108 C.2     1  UNL1        0.2231
     16 O         139.2750  144.0251  165.2292 O.2     1  UNL1       -0.2751
     17 N         141.0040  142.6107  163.9024 N.am    1  UNL1       -0.2959
     18 H         141.4122  141.7396  163.6934 H       1  UNL1        0.1502
     19 C         141.4891  143.8511  163.2124 C.3     1  UNL1        0.1364
     20 C         142.3417  145.0419  162.8882 C.3     1  UNL1        0.0353
     21 C         142.7157  144.1392  164.0263 C.3     1  UNL1        0.0353
     22 C         140.4310  143.9938  162.1588 C.1     1  UNL1        0.0896
     23 N         139.3729  144.1365  161.1052 N.1     1  UNL1       -0.1943
     24 C         141.1147  137.2439  156.6632 C.ar    1  UNL1        0.0674
     25 C         142.4493  137.5250  157.2876 C.ar    1  UNL1        0.0528
     26 S         142.2115  138.2065  158.6025 S.2     1  UNL1       -0.0513
     27 C         140.7300  138.3467  158.7908 C.ar    1  UNL1        0.1628
     28 N         140.0521  137.7517  157.5922 N.ar    1  UNL1       -0.2284
     29 C         141.2498  135.1299  155.1591 C.3     1  UNL1        0.0067
     30 C         140.8832  136.5728  155.3418 C.3     1  UNL1        0.0464
@<TRIPOS>BOND
     1    29    30    1
     2    30    24    1
     3    24    25   ar
     4    25    26   ar
     5    26    27   ar
     6    27     1    1
     7     1     2    1
     8     2     3    1
     9     3     4    1
    10     4     5   am
    11     5     6    2
    12     9     5    1
    13     9    10    1
    14    10    11    1
    15    11    12    1
    16    12    13    1
    17    13    14    1
    18    14    15    1
    19    15    16    2
    20    15    17   am
    21    17    19    1
    22    19    22    1
    23    22    23    3
    24    19    20    1
    25    20    21    1
    26     4     7    1
    27     7     8    1
    28    27    28   ar
    29    28    24   ar
    30     8     1    1
    31    14     9    1
    32    21    19    1
    33    17    18    1
@<TRIPOS>MOLECULE
*****
 30 33 0 0 0
SMALL
GASTEIGER

@<TRIPOS>ATOM
      1 N         142.7805  140.9701  159.3050 N.pl3   1  UNL1       -0.2847
      2 C         141.6082  141.0150  160.2397 C.3     1  UNL1        0.1141
      3 C         141.5678  142.0293  161.3439 C.3     1  UNL1        0.1149
      4 N         142.6997  142.9988  161.5136 N.am    1  UNL1       -0.2760
      5 C         142.6593  144.0132  162.6179 C.2     1  UNL1        0.2257
      6 O         143.7912  144.9827  162.7876 O.2     1  UNL1       -0.2749
      7 C         143.8721  142.9540  160.5790 C.3     1  UNL1        0.1149
      8 C         143.9125  141.9396  159.4747 C.3     1  UNL1        0.1141
      9 C         141.4869  144.0580  163.5525 C.3     1  UNL1        0.0853
     10 C         140.3217  144.9534  163.2517 C.3     1  UNL1        0.0096
     11 C         139.1493  144.9982  164.1864 C.3     1  UNL1        0.0005
     12 C         139.1422  144.1477  165.4219 C.3     1  UNL1        0.0005
     13 C         140.3074  143.2523  165.7227 C.3     1  UNL1        0.0096
     14 C         141.4798  143.2074  164.7881 C.3     1  UNL1        0.0851
     15 C         142.6450  142.3120  165.0890 C.2     1  UNL1        0.2231
     16 O         143.7190  142.7698  166.0308 O.2     1  UNL1       -0.2751
     17 N         142.7363  140.9590  164.4480 N.am    1  UNL1       -0.2959
     18 H         142.0314  140.6586  163.8299 H       1  UNL1        0.1502
     19 C         143.9015  140.0636  164.7489 C.3     1  UNL1        0.1364
     20 C         144.6915  138.9195  165.3119 C.3     1  UNL1        0.0353
     21 C         143.2257  139.0365  165.6082 C.3     1  UNL1        0.0353
     22 C         144.9820  140.7797  163.9941 C.1     1  UNL1        0.0896
     23 N         146.0625  141.4957  163.2393 N.1     1  UNL1       -0.1943
     24 C         143.0265  137.8554  157.0022 C.ar    1  UNL1        0.0674
     25 C         142.7399  138.9345  156.0005 C.ar    1  UNL1        0.0528
     26 S         142.6128  140.2326  156.7412 S.2     1  UNL1       -0.0513
     27 C         142.8210  139.9558  158.2007 C.ar    1  UNL1        0.1628
     28 N         143.0767  138.4866  158.3620 N.ar    1  UNL1       -0.2284
     29 C         143.9357  135.9882  155.4410 C.3     1  UNL1        0.0067
     30 C         143.2277  136.4004  156.6975 C.3     1  UNL1        0.0464
@<TRIPOS>BOND
     1    29    30    1
     2    30    24    1
     3    24    25   ar
     4    25    26   ar
     5    26    27   ar
     6    27     1    1
     7     1     2    1
     8     2     3    1
     9     3     4    1
    10     4     5   am
    11     5     6    2
    12     9     5    1
    13     9    10    1
    14    10    11    1
    15    11    12    1
    16    12    13    1
    17    13    14    1
    18    14    15    1
    19    15    16    2
    20    15    17   am
    21    17    19    1
    22    19    22    1
    23    22    23    3
    24    19    20    1
    25    20    21    1
    26     4     7    1
    27     7     8    1
    28    27    28   ar
    29    28    24   ar
    30     8     1    1
    31    14     9    1
    32    21    19    1
    33    17    18    1
@<TRIPOS>MOLECULE
*****
 30 33 0 0 0
SMALL
GASTEIGER

@<TRIPOS>ATOM
      1 N         141.4608  139.4547  159.6374 N.pl3   1  UNL1       -0.2847
      2 C         142.6273  139.8547  160.4914 C.3     1  UNL1        0.1141
      3 C         142.4285  140.8042  161.6355 C.3     1  UNL1        0.1149
      4 N         141.0632  141.3536  161.9256 N.am    1  UNL1       -0.2760
      5 C         140.8644  142.3031  163.0697 C.2     1  UNL1        0.2257
      6 O         139.4992  142.8526  163.3598 O.2     1  UNL1       -0.2749
      7 C         139.8968  140.9536  161.0716 C.3     1  UNL1        0.1149
      8 C         140.0956  140.0042  159.9275 C.3     1  UNL1        0.1141
      9 C         142.0309  142.7031  163.9237 C.3     1  UNL1        0.0853
     10 C         142.9321  143.8199  163.4870 C.3     1  UNL1        0.0096
     11 C         144.0986  144.2199  164.3411 C.3     1  UNL1        0.0005
     12 C         144.3638  143.5031  165.6317 C.3     1  UNL1        0.0005
     13 C         143.4627  142.3864  166.0684 C.3     1  UNL1        0.0096
     14 C         142.2962  141.9864  165.2144 C.3     1  UNL1        0.0851
     15 C         141.3950  140.8696  165.6511 C.2     1  UNL1        0.2231
     16 O         141.8921  139.4544  165.6338 O.2     1  UNL1       -0.2751
     17 N         139.9969  141.1679  166.1050 N.am    1  UNL1       -0.2959
     18 H         139.6707  142.0968  166.1163 H       1  UNL1        0.1502
     19 C         139.0957  140.0512  166.5417 C.3     1  UNL1        0.1364
     20 C         138.0527  138.9750  166.4787 C.3     1  UNL1        0.0353
     21 C         138.3742  139.7803  165.2548 C.3     1  UNL1        0.0353
     22 C         139.5041  139.9341  167.9802 C.1     1  UNL1        0.0896
     23 N         139.9127  139.8172  169.4187 N.1     1  UNL1       -0.1943
     24 C         142.6916  136.9827  156.9098 C.ar    1  UNL1        0.0674
     25 C         141.2392  137.1056  156.5555 C.ar    1  UNL1        0.0528
     26 S         140.6014  138.0466  157.5341 S.2     1  UNL1       -0.0513
     27 C         141.6596  138.5052  158.4933 C.ar    1  UNL1        0.1628
     28 N         142.9514  137.8477  158.1074 N.ar    1  UNL1       -0.2284
     29 C         143.3259  135.4178  154.9352 C.3     1  UNL1        0.0067
     30 C         143.7061  136.1423  156.1924 C.3     1  UNL1        0.0464
@<TRIPOS>BOND
     1    29    30    1
     2    30    24    1
     3    24    25   ar
     4    25    26   ar
     5    26    27   ar
     6    27     1    1
     7     1     2    1
     8     2     3    1
     9     3     4    1
    10     4     5   am
    11     5     6    2
    12     9     5    1
    13     9    10    1
    14    10    11    1
    15    11    12    1
    16    12    13    1
    17    13    14    1
    18    14    15    1
    19    15    16    2
    20    15    17   am
    21    17    19    1
    22    19    22    1
    23    22    23    3
    24    19    20    1
    25    20    21    1
    26     4     7    1
    27     7     8    1
    28    27    28   ar
    29    28    24   ar
    30     8     1    1
    31    14     9    1
    32    21    19    1
    33    17    18    1
@<TRIPOS>MOLECULE
*****
 30 33 0 0 0
SMALL
GASTEIGER

@<TRIPOS>ATOM
      1 N         143.7178  141.0505  163.0173 N.pl3   1  UNL1       -0.2847
      2 C         143.1999  142.1334  163.9168 C.3     1  UNL1        0.1141
      3 C         142.9190  141.8387  165.3604 C.3     1  UNL1        0.1149
      4 N         143.1561  140.4612  165.9047 N.am    1  UNL1       -0.2760
      5 C         142.8752  140.1666  167.3484 C.2     1  UNL1        0.2257
      6 O         143.1122  138.7891  167.8927 O.2     1  UNL1       -0.2749
      7 C         143.6740  139.3783  165.0052 C.3     1  UNL1        0.1149
      8 C         143.9549  139.6729  163.5616 C.3     1  UNL1        0.1141
      9 C         142.3572  141.2495  168.2479 C.3     1  UNL1        0.0853
     10 C         143.2841  141.9341  169.2081 C.3     1  UNL1        0.0096
     11 C         142.7661  143.0171  170.1076 C.3     1  UNL1        0.0005
     12 C         141.3212  143.4153  170.0467 C.3     1  UNL1        0.0005
     13 C         140.3943  142.7306  169.0865 C.3     1  UNL1        0.0096
     14 C         140.9123  141.6478  168.1871 C.3     1  UNL1        0.0851
     15 C         139.9854  140.9631  167.2268 C.2     1  UNL1        0.2231
     16 O         139.1649  139.7926  167.6818 O.2     1  UNL1       -0.2751
     17 N         139.8789  141.4488  165.8117 N.am    1  UNL1       -0.2959
     18 H         140.4174  142.2170  165.5131 H       1  UNL1        0.1502
     19 C         138.9520  140.7641  164.8514 C.3     1  UNL1        0.1364
     20 C         137.7908  140.5433  163.9280 C.3     1  UNL1        0.0353
     21 C         137.9553  141.8618  164.6240 C.3     1  UNL1        0.0353
     22 C         139.6268  139.4287  164.7454 C.1     1  UNL1        0.0896
     23 N         140.3016  138.0933  164.6394 N.1     1  UNL1       -0.1943
     24 C         144.1908  141.1129  159.1653 C.ar    1  UNL1        0.0674
     25 C         144.6713  142.4840  159.5386 C.ar    1  UNL1        0.0528
     26 S         144.5527  142.6274  161.0270 S.2     1  UNL1       -0.0513
     27 C         143.9988  141.3451  161.5736 C.ar    1  UNL1        0.1628
     28 N         143.7751  140.4091  160.4230 N.ar    1  UNL1       -0.2284
     29 C         145.1840  140.9192  156.7724 C.3     1  UNL1        0.0067
     30 C         144.1355  140.5454  157.7779 C.3     1  UNL1        0.0464
@<TRIPOS>BOND
     1    29    30    1
     2    30    24    1
     3    24    25   ar
     4    25    26   ar
     5    26    27   ar
     6    27     1    1
     7     1     2    1
     8     2     3    1
     9     3     4    1
    10     4     5   am
    11     5     6    2
    12     9     5    1
    13     9    10    1
    14    10    11    1
    15    11    12    1
    16    12    13    1
    17    13    14    1
    18    14    15    1
    19    15    16    2
    20    15    17   am
    21    17    19    1
    22    19    22    1
    23    22    23    3
    24    19    20    1
    25    20    21    1
    26     4     7    1
    27     7     8    1
    28    27    28   ar
    29    28    24   ar
    30     8     1    1
    31    14     9    1
    32    21    19    1
    33    17    18    1
@<TRIPOS>MOLECULE
*****
 30 33 0 0 0
SMALL
GASTEIGER

@<TRIPOS>ATOM
      1 N         141.1676  144.9873  159.3162 N.pl3   1  UNL1       -0.2847
      2 C         142.2297  143.9473  159.5166 C.3     1  UNL1        0.1141
      3 C         142.5198  143.4271  160.8933 C.3     1  UNL1        0.1149
      4 N         141.7477  143.9470  162.0696 N.am    1  UNL1       -0.2760
      5 C         142.0378  143.4269  163.4463 C.2     1  UNL1        0.2257
      6 O         141.2657  143.9468  164.6226 O.2     1  UNL1       -0.2749
      7 C         140.6856  144.9871  161.8691 C.3     1  UNL1        0.1149
      8 C         140.3955  145.5072  160.4925 C.3     1  UNL1        0.1141
      9 C         143.0999  142.3868  163.6467 C.3     1  UNL1        0.0853
     10 C         144.5378  142.7967  163.7663 C.3     1  UNL1        0.0096
     11 C         145.6000  141.7565  163.9667 C.3     1  UNL1        0.0005
     12 C         145.2241  140.3067  164.0476 C.3     1  UNL1        0.0005
     13 C         143.7861  139.8968  163.9280 C.3     1  UNL1        0.0096
     14 C         142.7240  140.9369  163.7276 C.3     1  UNL1        0.0851
     15 C         141.2861  140.5270  163.6080 C.2     1  UNL1        0.2231
     16 O         140.4148  140.4828  164.8283 O.2     1  UNL1       -0.2751
     17 N         140.7193  140.1614  162.2682 N.am    1  UNL1       -0.2959
     18 H         141.2911  140.1905  161.4673 H       1  UNL1        0.1502
     19 C         139.2814  139.7516  162.1486 C.3     1  UNL1        0.1364
     20 C         138.0698  138.8730  162.0482 C.3     1  UNL1        0.0353
     21 C         139.4338  138.2594  162.1624 C.3     1  UNL1        0.0353
     22 C         138.6295  141.1014  162.0933 C.1     1  UNL1        0.0896
     23 N         137.9778  142.4513  162.0381 N.1     1  UNL1       -0.1943
     24 C         139.8793  146.7335  156.0980 C.ar    1  UNL1        0.0674
     25 C         140.9832  145.8823  155.5438 C.ar    1  UNL1        0.0528
     26 S         141.6001  145.1246  156.6819 S.2     1  UNL1       -0.0513
     27 C         140.8775  145.5075  157.9395 C.ar    1  UNL1        0.1628
     28 N         139.8140  146.5018  157.5786 N.ar    1  UNL1       -0.2284
     29 C         139.6000  148.7661  154.5041 C.3     1  UNL1        0.0067
     30 C         138.9958  147.6546  155.3099 C.3     1  UNL1        0.0464
@<TRIPOS>BOND
     1    29    30    1
     2    30    24    1
     3    24    25   ar
     4    25    26   ar
     5    26    27   ar
     6    27     1    1
     7     1     2    1
     8     2     3    1
     9     3     4    1
    10     4     5   am
    11     5     6    2
    12     9     5    1
    13     9    10    1
    14    10    11    1
    15    11    12    1
    16    12    13    1
    17    13    14    1
    18    14    15    1
    19    15    16    2
    20    15    17   am
    21    17    19    1
    22    19    22    1
    23    22    23    3
    24    19    20    1
    25    20    21    1
    26     4     7    1
    27     7     8    1
    28    27    28   ar
    29    28    24   ar
    30     8     1    1
    31    14     9    1
    32    21    19    1
    33    17    18    1
