@<TRIPOS>MOLECULE
*****
 33 38 0 0 0
SMALL
GASTEIGER

@<TRIPOS>ATOM
      1 C         143.7344  138.9104  164.6409 C.3     1  UNL1        0.0238
      2 C         142.7379  140.0081  164.4128 C.3     1  UNL1        0.0973
      3 C         142.8322  140.0488  165.9093 C.3     1  UNL1        0.0493
      4 C         142.0175  141.0406  166.6855 C.2     1  UNL1       -0.0045
      5 C         141.1084  141.9917  165.9651 C.2     1  UNL1        0.0689
      6 N         140.4319  142.8526  166.9904 N.2     1  UNL1       -0.2526
      7 C         140.9229  142.4335  168.3444 C.2     1  UNL1        0.0627
      8 C         140.6042  142.9270  169.7246 C.3     1  UNL1        0.0717
      9 C         141.2655  142.3005  170.9163 C.2     1  UNL1       -0.0198
     10 C         142.2455  141.1806  170.7278 C.2     1  UNL1       -0.0042
     11 C         142.5642  140.6872  169.3477 C.2     1  UNL1        0.0006
     12 C         141.9028  141.3136  168.1560 C.2     1  UNL1        0.0111
     13 C         141.0141  141.9510  164.4686 C.3     1  UNL1        0.0948
     14 N         141.8288  140.9592  163.6925 N.3     1  UNL1       -0.2901
     15 H         142.4127  141.4956  163.0508 H       1  UNL1        0.1239
     16 C         142.9897  139.5861  162.9956 C.ar    1  UNL1        0.1301
     17 N         141.9444  139.1982  161.9922 N.ar    1  UNL1       -0.2298
     18 C         142.6396  138.8503  160.7094 C.ar    1  UNL1        0.0996
     19 C         144.1147  139.0234  160.9199 C.ar    1  UNL1        0.0927
     20 N         144.3310  139.4781  162.3328 N.ar    1  UNL1       -0.3386
     21 H         145.2007  139.6717  162.7517 H       1  UNL1        0.1672
     22 C         141.9763  138.4073  159.4391 C.ar    1  UNL1        0.0192
     23 C         140.5228  138.6995  159.2106 C.ar    1  UNL1        0.0015
     24 C         139.8595  138.2564  157.9403 C.ar    1  UNL1        0.0000
     25 C         140.6494  137.5212  156.8985 C.ar    1  UNL1        0.0000
     26 C         142.1029  137.2290  157.1270 C.ar    1  UNL1        0.0000
     27 C         142.7662  137.6721  158.3973 C.ar    1  UNL1        0.0015
     28 C         140.1050  142.9022  163.7483 C.3     1  UNL1        0.0252
     29 C         140.5624  144.3003  163.4555 C.3     1  UNL1        0.0339
     30 C         139.6532  145.2515  162.7351 C.3     1  UNL1        0.1422
     31 O         138.2867  144.8043  162.3076 O.3     1  UNL1       -0.3538
     32 C         137.8294  143.4061  162.6003 C.3     1  UNL1        0.1422
     33 C         138.7385  142.4550  163.3207 C.3     1  UNL1        0.0339
@<TRIPOS>BOND
     1     1     2    1
     2     2    16    1
     3    16    17   ar
     4    17    18   ar
     5    18    22    1
     6    22    23   ar
     7    23    24   ar
     8    24    25   ar
     9    25    26   ar
    10    26    27   ar
    11    18    19   ar
    12    19    20   ar
    13     2     3    1
    14     3     4    1
    15     4     5    2
    16     5     6    1
    17     6     7    2
    18     7     8    1
    19     8     9    1
    20     9    10    2
    21    10    11    1
    22    11    12    2
    23     5    13    1
    24    13    28    1
    25    28    29    1
    26    29    30    1
    27    30    31    1
    28    31    32    1
    29    32    33    1
    30    13    14    1
    31    14     2    1
    32    20    16   ar
    33    12     4    1
    34    33    28    1
    35    27    22   ar
    36    12     7    1
    37    20    21    1
    38    14    15    1
@<TRIPOS>MOLECULE
*****
 33 38 0 0 0
SMALL
GASTEIGER

@<TRIPOS>ATOM
      1 C         138.4413  138.1385  162.4089 C.3     1  UNL1        0.0238
      2 C         139.8110  138.7481  162.3617 C.3     1  UNL1        0.0973
      3 C         139.6436  138.3720  160.9193 C.3     1  UNL1        0.0493
      4 C         140.7388  138.6625  159.9364 C.2     1  UNL1       -0.0045
      5 C         142.0015  139.3292  160.3960 C.2     1  UNL1        0.0689
      6 N         142.9011  139.4882  159.2063 N.2     1  UNL1       -0.2526
      7 C         142.1944  138.9199  158.0115 C.2     1  UNL1        0.0627
      8 C         142.5951  138.8011  156.5709 C.3     1  UNL1        0.0717
      9 C         141.6594  138.1720  155.5816 C.2     1  UNL1       -0.0198
     10 C         140.3230  137.6617  156.0329 C.2     1  UNL1       -0.0042
     11 C         139.9223  137.7805  157.4734 C.2     1  UNL1        0.0006
     12 C         140.8580  138.4096  158.4627 C.2     1  UNL1        0.0111
     13 C         142.1689  139.7053  161.8384 C.3     1  UNL1        0.0948
     14 N         141.0737  139.4147  162.8213 N.3     1  UNL1       -0.2901
     15 H         140.8024  140.3079  163.2323 H       1  UNL1        0.1239
     16 C         139.5028  138.9124  163.8205 C.ar    1  UNL1        0.1301
     17 N         140.0137  140.0052  164.7119 N.ar    1  UNL1       -0.2298
     18 C         139.4562  139.7811  166.0863 C.ar    1  UNL1        0.0996
     19 C         138.6006  138.5497  166.0443 C.ar    1  UNL1        0.0927
     20 N         138.6294  138.0129  164.6440 N.ar    1  UNL1       -0.3386
     21 H         138.1579  137.2109  164.3219 H       1  UNL1        0.1672
     22 C         139.7097  140.6379  167.2911 C.ar    1  UNL1        0.0192
     23 C         139.3440  140.1379  168.6573 C.ar    1  UNL1        0.0015
     24 C         139.5976  140.9947  169.8621 C.ar    1  UNL1        0.0000
     25 C         140.2167  142.3514  169.7009 C.ar    1  UNL1        0.0000
     26 C         140.5824  142.8513  168.3347 C.ar    1  UNL1        0.0000
     27 C         140.3289  141.9945  167.1299 C.ar    1  UNL1        0.0015
     28 C         143.4316  140.3719  162.2980 C.3     1  UNL1        0.0252
     29 C         143.9401  141.5888  161.5836 C.3     1  UNL1        0.0339
     30 C         145.2028  142.2555  162.0432 C.3     1  UNL1        0.1422
     31 O         145.9570  141.7051  163.2172 O.3     1  UNL1       -0.3538
     32 C         145.4485  140.4881  163.9316 C.3     1  UNL1        0.1422
     33 C         144.1859  139.8215  163.4720 C.3     1  UNL1        0.0339
@<TRIPOS>BOND
     1     1     2    1
     2     2    16    1
     3    16    17   ar
     4    17    18   ar
     5    18    22    1
     6    22    23   ar
     7    23    24   ar
     8    24    25   ar
     9    25    26   ar
    10    26    27   ar
    11    18    19   ar
    12    19    20   ar
    13     2     3    1
    14     3     4    1
    15     4     5    2
    16     5     6    1
    17     6     7    2
    18     7     8    1
    19     8     9    1
    20     9    10    2
    21    10    11    1
    22    11    12    2
    23     5    13    1
    24    13    28    1
    25    28    29    1
    26    29    30    1
    27    30    31    1
    28    31    32    1
    29    32    33    1
    30    13    14    1
    31    14     2    1
    32    20    16   ar
    33    12     4    1
    34    33    28    1
    35    27    22   ar
    36    12     7    1
    37    20    21    1
    38    14    15    1
@<TRIPOS>MOLECULE
*****
 33 38 0 0 0
SMALL
GASTEIGER

@<TRIPOS>ATOM
      1 C         139.6238  137.9714  164.8461 C.3     1  UNL1        0.0238
      2 C         139.7905  139.4451  164.6217 C.3     1  UNL1        0.0973
      3 C         139.9169  139.3932  166.1154 C.3     1  UNL1        0.0493
      4 C         140.1460  140.6553  166.8930 C.2     1  UNL1       -0.0045
      5 C         140.2487  141.9693  166.1768 C.2     1  UNL1        0.0689
      6 N         140.4756  143.0398  167.2027 N.2     1  UNL1       -0.2526
      7 C         140.5132  142.3875  168.5529 C.2     1  UNL1        0.0627
      8 C         140.7065  142.9450  169.9319 C.3     1  UNL1        0.0717
      9 C         140.6962  142.0288  171.1196 C.2     1  UNL1       -0.0198
     10 C         140.4924  140.5551  170.9281 C.2     1  UNL1       -0.0042
     11 C         140.2991  139.9976  169.5491 C.2     1  UNL1        0.0006
     12 C         140.3094  140.9138  168.3615 C.2     1  UNL1        0.0111
     13 C         140.1224  142.0212  164.6830 C.3     1  UNL1        0.0948
     14 N         139.8933  140.7591  163.9055 N.3     1  UNL1       -0.2901
     15 H         140.6667  140.6752  163.2458 H       1  UNL1        0.1239
     16 C         139.6063  138.9852  163.2058 C.ar    1  UNL1        0.1301
     17 N         140.5905  139.1587  162.0873 N.ar    1  UNL1       -0.2298
     18 C         139.9979  138.5517  160.8502 C.ar    1  UNL1        0.0996
     19 C         138.6475  138.0030  161.2041 C.ar    1  UNL1        0.0927
     20 N         138.4055  138.2709  162.6600 N.ar    1  UNL1       -0.3386
     21 H         137.5999  138.0217  163.1681 H       1  UNL1        0.1672
     22 C         140.6427  138.5022  159.4967 C.ar    1  UNL1        0.0192
     23 C         139.7923  138.4304  158.2631 C.ar    1  UNL1        0.0015
     24 C         140.4370  138.3809  156.9096 C.ar    1  UNL1        0.0000
     25 C         141.9320  138.4030  156.7897 C.ar    1  UNL1        0.0000
     26 C         142.7824  138.4747  158.0233 C.ar    1  UNL1        0.0000
     27 C         142.1377  138.5243  159.3768 C.ar    1  UNL1        0.0015
     28 C         140.2251  143.3351  163.9668 C.3     1  UNL1        0.0252
     29 C         141.5270  144.0797  163.9489 C.3     1  UNL1        0.0339
     30 C         141.6297  145.3937  163.2326 C.3     1  UNL1        0.1422
     31 O         140.4304  145.9630  162.5344 O.3     1  UNL1       -0.3538
     32 C         139.1284  145.2184  162.5524 C.3     1  UNL1        0.1422
     33 C         139.0257  143.9045  163.2686 C.3     1  UNL1        0.0339
@<TRIPOS>BOND
     1     1     2    1
     2     2    16    1
     3    16    17   ar
     4    17    18   ar
     5    18    22    1
     6    22    23   ar
     7    23    24   ar
     8    24    25   ar
     9    25    26   ar
    10    26    27   ar
    11    18    19   ar
    12    19    20   ar
    13     2     3    1
    14     3     4    1
    15     4     5    2
    16     5     6    1
    17     6     7    2
    18     7     8    1
    19     8     9    1
    20     9    10    2
    21    10    11    1
    22    11    12    2
    23     5    13    1
    24    13    28    1
    25    28    29    1
    26    29    30    1
    27    30    31    1
    28    31    32    1
    29    32    33    1
    30    13    14    1
    31    14     2    1
    32    20    16   ar
    33    12     4    1
    34    33    28    1
    35    27    22   ar
    36    12     7    1
    37    20    21    1
    38    14    15    1
@<TRIPOS>MOLECULE
*****
 33 38 0 0 0
SMALL
GASTEIGER

@<TRIPOS>ATOM
      1 C         139.3849  144.7971  164.9453 C.3     1  UNL1        0.0238
      2 C         140.2163  143.6105  164.5573 C.3     1  UNL1        0.0973
      3 C         140.0405  143.3376  166.0217 C.3     1  UNL1        0.0493
      4 C         140.6569  142.1160  166.6363 C.2     1  UNL1       -0.0045
      5 C         141.4490  141.1672  165.7864 C.2     1  UNL1        0.0689
      6 N         141.9357  140.0534  166.6653 N.2     1  UNL1       -0.2526
      7 C         141.4444  140.3138  168.0585 C.2     1  UNL1        0.0627
      8 C         141.6146  139.5549  169.3410 C.3     1  UNL1        0.0717
      9 C         140.9944  140.0706  170.6056 C.2     1  UNL1       -0.0198
     10 C         140.2040  141.3454  170.5877 C.2     1  UNL1       -0.0042
     11 C         140.0338  142.1043  169.3051 C.2     1  UNL1        0.0006
     12 C         140.6540  141.5885  168.0405 C.2     1  UNL1        0.0111
     13 C         141.6248  141.4401  164.3219 C.3     1  UNL1        0.0948
     14 N         141.0085  142.6617  163.7073 N.3     1  UNL1       -0.2901
     15 H         140.3845  142.3369  162.9687 H       1  UNL1        0.1239
     16 C         140.1033  144.2955  163.2276 C.ar    1  UNL1        0.1301
     17 N         140.1631  143.6296  161.8849 N.ar    1  UNL1       -0.2298
     18 C         140.0074  144.6892  160.8346 C.ar    1  UNL1        0.0996
     19 C         139.8516  146.0100  161.5282 C.ar    1  UNL1        0.0927
     20 N         139.9108  145.7667  163.0072 N.ar    1  UNL1       -0.3386
     21 H         139.8364  146.4522  163.7099 H       1  UNL1        0.1672
     22 C         140.0077  144.4670  159.3512 C.ar    1  UNL1        0.0192
     23 C         139.5183  143.1658  158.7877 C.ar    1  UNL1        0.0015
     24 C         139.5186  142.9436  157.3042 C.ar    1  UNL1        0.0000
     25 C         140.0081  144.0225  156.3842 C.ar    1  UNL1        0.0000
     26 C         140.4975  145.3236  156.9478 C.ar    1  UNL1        0.0000
     27 C         140.4973  145.5459  158.4312 C.ar    1  UNL1        0.0015
     28 C         142.4170  140.4914  163.4720 C.3     1  UNL1        0.0252
     29 C         141.9631  139.0708  163.3110 C.3     1  UNL1        0.0339
     30 C         142.7553  138.1221  162.4611 C.3     1  UNL1        0.1422
     31 O         144.0014  138.5940  161.7721 O.3     1  UNL1       -0.3538
     32 C         144.4553  140.0146  161.9331 C.3     1  UNL1        0.1422
     33 C         143.6631  140.9632  162.7830 C.3     1  UNL1        0.0339
@<TRIPOS>BOND
     1     1     2    1
     2     2    16    1
     3    16    17   ar
     4    17    18   ar
     5    18    22    1
     6    22    23   ar
     7    23    24   ar
     8    24    25   ar
     9    25    26   ar
    10    26    27   ar
    11    18    19   ar
    12    19    20   ar
    13     2     3    1
    14     3     4    1
    15     4     5    2
    16     5     6    1
    17     6     7    2
    18     7     8    1
    19     8     9    1
    20     9    10    2
    21    10    11    1
    22    11    12    2
    23     5    13    1
    24    13    28    1
    25    28    29    1
    26    29    30    1
    27    30    31    1
    28    31    32    1
    29    32    33    1
    30    13    14    1
    31    14     2    1
    32    20    16   ar
    33    12     4    1
    34    33    28    1
    35    27    22   ar
    36    12     7    1
    37    20    21    1
    38    14    15    1
@<TRIPOS>MOLECULE
*****
 33 38 0 0 0
SMALL
GASTEIGER

@<TRIPOS>ATOM
      1 C         139.1519  138.3367  164.9814 C.3     1  UNL1        0.0238
      2 C         140.0792  139.4872  164.7239 C.3     1  UNL1        0.0973
      3 C         140.0458  139.5102  166.2233 C.3     1  UNL1        0.0493
      4 C         140.8395  140.5370  166.9755 C.2     1  UNL1       -0.0045
      5 C         141.6665  141.5408  166.2283 C.2     1  UNL1        0.0689
      6 N         142.3395  142.4273  167.2337 N.2     1  UNL1       -0.2526
      7 C         141.9285  141.9715  168.6024 C.2     1  UNL1        0.0627
      8 C         142.2786  142.4693  169.9734 C.3     1  UNL1        0.0717
      9 C         141.7016  141.7988  171.1847 C.2     1  UNL1       -0.0198
     10 C         140.7745  140.6305  171.0251 C.2     1  UNL1       -0.0042
     11 C         140.4244  140.1327  169.6542 C.2     1  UNL1        0.0006
     12 C         141.0014  140.8032  168.4428 C.2     1  UNL1        0.0111
     13 C         141.6999  141.5178  164.7288 C.3     1  UNL1        0.0948
     14 N         140.9062  140.4910  163.9766 N.3     1  UNL1       -0.2901
     15 H         141.5700  139.9626  163.4104 H       1  UNL1        0.1239
     16 C         139.7905  139.0646  163.3139 C.ar    1  UNL1        0.1301
     17 N         140.7468  139.1312  162.1602 N.ar    1  UNL1       -0.2298
     18 C         140.0422  138.6090  160.9433 C.ar    1  UNL1        0.0996
     19 C         138.6504  138.2197  161.3449 C.ar    1  UNL1        0.0927
     20 N         138.4949  138.5013  162.8100 N.ar    1  UNL1       -0.3386
     21 H         137.6846  138.3440  163.3466 H       1  UNL1        0.1672
     22 C         140.6268  138.4959  159.5665 C.ar    1  UNL1        0.0192
     23 C         142.1032  138.2956  159.3928 C.ar    1  UNL1        0.0015
     24 C         142.6878  138.1825  158.0160 C.ar    1  UNL1        0.0000
     25 C         141.7961  138.2699  156.8130 C.ar    1  UNL1        0.0000
     26 C         140.3197  138.4702  156.9868 C.ar    1  UNL1        0.0000
     27 C         139.7351  138.5833  158.3635 C.ar    1  UNL1        0.0015
     28 C         142.5269  142.5215  163.9815 C.3     1  UNL1        0.0252
     29 C         142.1451  143.9719  164.0017 C.3     1  UNL1        0.0339
     30 C         142.9722  144.9757  163.2544 C.3     1  UNL1        0.1422
     31 O         144.1811  144.5290  162.4869 O.3     1  UNL1       -0.3538
     32 C         144.5629  143.0786  162.4667 C.3     1  UNL1        0.1422
     33 C         143.7359  142.0749  163.2140 C.3     1  UNL1        0.0339
@<TRIPOS>BOND
     1     1     2    1
     2     2    16    1
     3    16    17   ar
     4    17    18   ar
     5    18    22    1
     6    22    23   ar
     7    23    24   ar
     8    24    25   ar
     9    25    26   ar
    10    26    27   ar
    11    18    19   ar
    12    19    20   ar
    13     2     3    1
    14     3     4    1
    15     4     5    2
    16     5     6    1
    17     6     7    2
    18     7     8    1
    19     8     9    1
    20     9    10    2
    21    10    11    1
    22    11    12    2
    23     5    13    1
    24    13    28    1
    25    28    29    1
    26    29    30    1
    27    30    31    1
    28    31    32    1
    29    32    33    1
    30    13    14    1
    31    14     2    1
    32    20    16   ar
    33    12     4    1
    34    33    28    1
    35    27    22   ar
    36    12     7    1
    37    20    21    1
    38    14    15    1
@<TRIPOS>MOLECULE
*****
 33 38 0 0 0
SMALL
GASTEIGER

@<TRIPOS>ATOM
      1 C         143.9493  139.2865  164.7412 C.3     1  UNL1        0.0238
      2 C         142.9312  140.3612  164.4993 C.3     1  UNL1        0.0973
      3 C         142.9226  140.3271  165.9989 C.3     1  UNL1        0.0493
      4 C         142.0217  141.2499  166.7649 C.2     1  UNL1       -0.0045
      5 C         141.1294  142.2068  166.0312 C.2     1  UNL1        0.0689
      6 N         140.3542  142.9904  167.0486 N.2     1  UNL1       -0.2526
      7 C         140.7674  142.5179  168.4109 C.2     1  UNL1        0.0627
      8 C         140.3384  142.9282  169.7884 C.3     1  UNL1        0.0717
      9 C         140.9400  142.2627  170.9906 C.2     1  UNL1       -0.0198
     10 C         141.9705  141.1870  170.8153 C.2     1  UNL1       -0.0042
     11 C         142.3995  140.7767  169.4377 C.2     1  UNL1        0.0006
     12 C         141.7980  141.4422  168.2356 C.2     1  UNL1        0.0111
     13 C         141.1380  142.2408  164.5316 C.3     1  UNL1        0.0948
     14 N         142.0389  141.3180  163.7657 N.3     1  UNL1       -0.2901
     15 H         142.6449  141.9060  163.1934 H       1  UNL1        0.1239
     16 C         143.2935  140.0220  163.0837 C.ar    1  UNL1        0.1301
     17 N         143.2395  140.9566  161.9117 N.ar    1  UNL1       -0.2298
     18 C         143.6860  140.2009  160.6953 C.ar    1  UNL1        0.0996
     19 C         144.0158  138.7993  161.1155 C.ar    1  UNL1        0.0927
     20 N         143.7732  138.6887  162.5916 N.ar    1  UNL1       -0.3386
     21 H         143.9057  137.8826  163.1410 H       1  UNL1        0.1672
     22 C         143.7851  140.7505  159.3031 C.ar    1  UNL1        0.0192
     23 C         143.3955  139.8990  158.1312 C.ar    1  UNL1        0.0015
     24 C         143.4947  140.4485  156.7391 C.ar    1  UNL1        0.0000
     25 C         143.9834  141.8494  156.5187 C.ar    1  UNL1        0.0000
     26 C         144.3731  142.7009  157.6906 C.ar    1  UNL1        0.0000
     27 C         144.2739  142.1513  159.0828 C.ar    1  UNL1        0.0015
     28 C         140.2457  143.1977  163.7980 C.3     1  UNL1        0.0252
     29 C         140.8235  144.4324  163.1723 C.3     1  UNL1        0.0339
     30 C         139.9311  145.3892  162.4386 C.3     1  UNL1        0.1422
     31 O         138.4610  145.1114  162.3308 O.3     1  UNL1       -0.3538
     32 C         137.8832  143.8766  162.9566 C.3     1  UNL1        0.1422
     33 C         138.7756  142.9198  163.6902 C.3     1  UNL1        0.0339
@<TRIPOS>BOND
     1     1     2    1
     2     2    16    1
     3    16    17   ar
     4    17    18   ar
     5    18    22    1
     6    22    23   ar
     7    23    24   ar
     8    24    25   ar
     9    25    26   ar
    10    26    27   ar
    11    18    19   ar
    12    19    20   ar
    13     2     3    1
    14     3     4    1
    15     4     5    2
    16     5     6    1
    17     6     7    2
    18     7     8    1
    19     8     9    1
    20     9    10    2
    21    10    11    1
    22    11    12    2
    23     5    13    1
    24    13    28    1
    25    28    29    1
    26    29    30    1
    27    30    31    1
    28    31    32    1
    29    32    33    1
    30    13    14    1
    31    14     2    1
    32    20    16   ar
    33    12     4    1
    34    33    28    1
    35    27    22   ar
    36    12     7    1
    37    20    21    1
    38    14    15    1
@<TRIPOS>MOLECULE
*****
 33 38 0 0 0
SMALL
GASTEIGER

@<TRIPOS>ATOM
      1 C         145.0737  142.6621  164.3045 C.3     1  UNL1        0.0238
      2 C         143.5878  142.4844  164.2025 C.3     1  UNL1        0.0973
      3 C         143.7511  142.4618  165.6935 C.3     1  UNL1        0.0493
      4 C         142.5510  142.2908  166.5769 C.2     1  UNL1       -0.0045
      5 C         141.1876  142.1424  165.9694 C.2     1  UNL1        0.0689
      6 N         140.1970  141.9903  167.0854 N.2     1  UNL1       -0.2526
      7 C         140.9481  142.0446  168.3827 C.2     1  UNL1        0.0627
      8 C         140.4953  141.9489  169.8094 C.3     1  UNL1        0.0717
      9 C         141.4974  142.0390  170.9219 C.2     1  UNL1       -0.0198
     10 C         142.9523  142.2247  170.6076 C.2     1  UNL1       -0.0042
     11 C         143.4051  142.3204  169.1809 C.2     1  UNL1        0.0006
     12 C         142.4030  142.2303  168.0684 C.2     1  UNL1        0.0111
     13 C         141.0243  142.1651  164.4785 C.3     1  UNL1        0.0948
     14 N         142.2244  142.3361  163.5950 N.3     1  UNL1       -0.2901
     15 H         142.0599  143.1714  163.0333 H       1  UNL1        0.1239
     16 C         143.9406  142.5688  162.7470 C.ar    1  UNL1        0.1301
     17 N         143.0136  142.9663  161.6368 N.ar    1  UNL1       -0.2298
     18 C         143.7824  142.9136  160.3498 C.ar    1  UNL1        0.0996
     19 C         145.1845  142.4835  160.6647 C.ar    1  UNL1        0.0927
     20 N         145.2823  142.2704  162.1463 N.ar    1  UNL1       -0.3386
     21 H         146.0859  141.9849  162.6380 H       1  UNL1        0.1672
     22 C         143.2436  143.2346  158.9873 C.ar    1  UNL1        0.0192
     23 C         142.0513  144.1336  158.8449 C.ar    1  UNL1        0.0015
     24 C         141.5125  144.4546  157.4823 C.ar    1  UNL1        0.0000
     25 C         142.1660  143.8767  156.2621 C.ar    1  UNL1        0.0000
     26 C         143.3583  142.9777  156.4044 C.ar    1  UNL1        0.0000
     27 C         143.8971  142.6567  157.7670 C.ar    1  UNL1        0.0015
     28 C         139.6609  142.0167  163.8710 C.3     1  UNL1        0.0252
     29 C         139.0237  140.6619  163.7800 C.3     1  UNL1        0.0339
     30 C         137.6602  140.5136  163.1724 C.3     1  UNL1        0.1422
     31 O         136.9340  141.7201  162.6559 O.3     1  UNL1       -0.3538
     32 C         137.5712  143.0750  162.7469 C.3     1  UNL1        0.1422
     33 C         138.9346  143.2233  163.3544 C.3     1  UNL1        0.0339
@<TRIPOS>BOND
     1     1     2    1
     2     2    16    1
     3    16    17   ar
     4    17    18   ar
     5    18    22    1
     6    22    23   ar
     7    23    24   ar
     8    24    25   ar
     9    25    26   ar
    10    26    27   ar
    11    18    19   ar
    12    19    20   ar
    13     2     3    1
    14     3     4    1
    15     4     5    2
    16     5     6    1
    17     6     7    2
    18     7     8    1
    19     8     9    1
    20     9    10    2
    21    10    11    1
    22    11    12    2
    23     5    13    1
    24    13    28    1
    25    28    29    1
    26    29    30    1
    27    30    31    1
    28    31    32    1
    29    32    33    1
    30    13    14    1
    31    14     2    1
    32    20    16   ar
    33    12     4    1
    34    33    28    1
    35    27    22   ar
    36    12     7    1
    37    20    21    1
    38    14    15    1
@<TRIPOS>MOLECULE
*****
 33 38 0 0 0
SMALL
GASTEIGER

@<TRIPOS>ATOM
      1 C         142.4526  144.6462  163.6170 C.3     1  UNL1        0.0238
      2 C         141.7253  143.3353  163.5670 C.3     1  UNL1        0.0973
      3 C         142.2794  143.2727  164.9595 C.3     1  UNL1        0.0493
      4 C         142.0015  142.0792  165.8245 C.2     1  UNL1       -0.0045
      5 C         141.1694  140.9481  165.2969 C.2     1  UNL1        0.0689
      6 N         141.0639  139.9089  166.3734 N.2     1  UNL1       -0.2526
      7 C         141.8308  140.3977  167.5663 C.2     1  UNL1        0.0627
      8 C         142.0764  139.7947  168.9176 C.3     1  UNL1        0.0717
      9 C         142.9014  140.5330  169.9296 C.2     1  UNL1       -0.0198
     10 C         143.4809  141.8743  169.5903 C.2     1  UNL1       -0.0042
     11 C         143.2353  142.4773  168.2390 C.2     1  UNL1        0.0006
     12 C         142.4103  141.7390  167.2270 C.2     1  UNL1        0.0111
     13 C         140.6152  141.0107  163.9044 C.3     1  UNL1        0.0948
     14 N         140.8932  142.2042  163.0395 N.3     1  UNL1       -0.2901
     15 H         139.9883  142.5991  162.7829 H       1  UNL1        0.1239
     16 C         141.4237  143.8531  162.1919 C.ar    1  UNL1        0.1301
     17 N         140.4935  143.2242  161.1974 N.ar    1  UNL1       -0.2298
     18 C         140.4944  144.0731  159.9607 C.ar    1  UNL1        0.0996
     19 C         141.4251  145.2267  160.1909 C.ar    1  UNL1        0.0927
     20 N         141.9995  145.0907  161.5699 N.ar    1  UNL1       -0.3386
     21 H         142.6416  145.7057  161.9925 H       1  UNL1        0.1672
     22 C         139.7033  143.8140  158.7129 C.ar    1  UNL1        0.0192
     23 C         139.9712  144.6172  157.4747 C.ar    1  UNL1        0.0015
     24 C         139.1802  144.3581  156.2268 C.ar    1  UNL1        0.0000
     25 C         138.1213  143.2957  156.2171 C.ar    1  UNL1        0.0000
     26 C         137.8534  142.4925  157.4553 C.ar    1  UNL1        0.0000
     27 C         138.6444  142.7516  158.7031 C.ar    1  UNL1        0.0015
     28 C         139.7831  139.8796  163.3768 C.3     1  UNL1        0.0252
     29 C         138.5951  140.1649  162.5067 C.3     1  UNL1        0.0339
     30 C         137.7630  139.0337  161.9791 C.3     1  UNL1        0.1422
     31 O         138.1190  137.6175  162.3217 O.3     1  UNL1       -0.3538
     32 C         139.3070  137.3322  163.1919 C.3     1  UNL1        0.1422
     33 C         140.1390  138.4632  163.7195 C.3     1  UNL1        0.0339
@<TRIPOS>BOND
     1     1     2    1
     2     2    16    1
     3    16    17   ar
     4    17    18   ar
     5    18    22    1
     6    22    23   ar
     7    23    24   ar
     8    24    25   ar
     9    25    26   ar
    10    26    27   ar
    11    18    19   ar
    12    19    20   ar
    13     2     3    1
    14     3     4    1
    15     4     5    2
    16     5     6    1
    17     6     7    2
    18     7     8    1
    19     8     9    1
    20     9    10    2
    21    10    11    1
    22    11    12    2
    23     5    13    1
    24    13    28    1
    25    28    29    1
    26    29    30    1
    27    30    31    1
    28    31    32    1
    29    32    33    1
    30    13    14    1
    31    14     2    1
    32    20    16   ar
    33    12     4    1
    34    33    28    1
    35    27    22   ar
    36    12     7    1
    37    20    21    1
    38    14    15    1
@<TRIPOS>MOLECULE
*****
 33 38 0 0 0
SMALL
GASTEIGER

@<TRIPOS>ATOM
      1 C         141.9763  137.6969  162.0543 C.3     1  UNL1        0.0238
      2 C         141.2870  139.0254  161.9542 C.3     1  UNL1        0.0973
      3 C         140.9995  138.4793  160.5871 C.3     1  UNL1        0.0493
      4 C         140.2058  139.2911  159.6068 C.2     1  UNL1       -0.0045
      5 C         139.6996  140.6491  159.9937 C.2     1  UNL1        0.0689
      6 N         138.9495  141.2146  158.8243 N.2     1  UNL1       -0.2526
      7 C         138.9921  140.2062  157.7147 C.2     1  UNL1        0.0627
      8 C         138.4242  140.2168  156.3264 C.3     1  UNL1        0.0717
      9 C         138.6328  139.0387  155.4218 C.2     1  UNL1       -0.0198
     10 C         139.4092  137.8499  155.9054 C.2     1  UNL1       -0.0042
     11 C         139.9771  137.8392  157.2936 C.2     1  UNL1        0.0006
     12 C         139.7686  139.0174  158.1983 C.2     1  UNL1        0.0111
     13 C         139.9871  141.1952  161.3609 C.3     1  UNL1        0.0948
     14 N         140.7808  140.3834  162.3411 N.3     1  UNL1       -0.2901
     15 H         140.1905  140.2544  163.1629 H       1  UNL1        0.1239
     16 C         141.8139  139.1101  163.3561 C.ar    1  UNL1        0.1301
     17 N         141.0024  139.3815  164.5881 N.ar    1  UNL1       -0.2298
     18 C         141.9317  139.3774  165.7655 C.ar    1  UNL1        0.0996
     19 C         143.3176  139.1035  165.2613 C.ar    1  UNL1        0.0927
     20 N         143.2448  138.9383  163.7722 N.ar    1  UNL1       -0.3386
     21 H         144.0030  138.7502  163.1731 H       1  UNL1        0.1672
     22 C         141.5433  139.6069  167.1960 C.ar    1  UNL1        0.0192
     23 C         140.1490  140.0451  167.5336 C.ar    1  UNL1        0.0015
     24 C         139.7606  140.2746  168.9641 C.ar    1  UNL1        0.0000
     25 C         140.7664  140.0659  170.0572 C.ar    1  UNL1        0.0000
     26 C         142.1607  139.6277  169.7196 C.ar    1  UNL1        0.0000
     27 C         142.5491  139.3982  168.2891 C.ar    1  UNL1        0.0015
     28 C         139.4809  142.5531  161.7478 C.3     1  UNL1        0.0252
     29 C         140.2305  143.7815  161.3248 C.3     1  UNL1        0.0339
     30 C         139.7242  145.1395  161.7117 C.3     1  UNL1        0.1422
     31 O         138.4684  145.2690  162.5217 O.3     1  UNL1       -0.3538
     32 C         137.7187  144.0405  162.9447 C.3     1  UNL1        0.1422
     33 C         138.2250  142.6827  162.5578 C.3     1  UNL1        0.0339
@<TRIPOS>BOND
     1     1     2    1
     2     2    16    1
     3    16    17   ar
     4    17    18   ar
     5    18    22    1
     6    22    23   ar
     7    23    24   ar
     8    24    25   ar
     9    25    26   ar
    10    26    27   ar
    11    18    19   ar
    12    19    20   ar
    13     2     3    1
    14     3     4    1
    15     4     5    2
    16     5     6    1
    17     6     7    2
    18     7     8    1
    19     8     9    1
    20     9    10    2
    21    10    11    1
    22    11    12    2
    23     5    13    1
    24    13    28    1
    25    28    29    1
    26    29    30    1
    27    30    31    1
    28    31    32    1
    29    32    33    1
    30    13    14    1
    31    14     2    1
    32    20    16   ar
    33    12     4    1
    34    33    28    1
    35    27    22   ar
    36    12     7    1
    37    20    21    1
    38    14    15    1
