@<TRIPOS>MOLECULE
*****
 34 38 0 0 0
SMALL
GASTEIGER

@<TRIPOS>ATOM
      1 C         139.5640  139.6834  166.9859 C.ar    1  UNL1        0.0208
      2 C         138.3802  139.1608  166.2272 C.ar    1  UNL1        0.0013
      3 C         138.5239  138.7781  164.7840 C.ar    1  UNL1       -0.0029
      4 C         139.8513  138.9180  164.0994 C.ar    1  UNL1       -0.0061
      5 C         141.0350  139.4406  164.8582 C.ar    1  UNL1       -0.0029
      6 C         140.8913  139.8233  166.3014 C.ar    1  UNL1        0.0013
      7 O         138.1322  139.9126  170.6801 O.2     1  UNL1       -0.4087
      8 N         138.2758  139.5299  169.2369 N.2     1  UNL1       -0.0864
      9 C         139.4204  140.0661  168.4291 C.2     1  UNL1        0.1192
     10 H         137.4172  139.5777  171.1847 H       1  UNL1        0.3278
     11 C         140.4213  140.9850  169.0645 C.ar    1  UNL1        0.0232
     12 C         141.7456  140.4500  169.5226 C.ar    1  UNL1        0.0041
     13 C         142.7465  141.3689  170.1581 C.ar    1  UNL1        0.0320
     14 C         142.4231  142.8228  170.3354 C.ar    1  UNL1        0.1674
     15 F         143.4240  143.7418  170.9709 F       1  UNL1       -0.2018
     16 C         141.0987  143.3579  169.8773 C.ar    1  UNL1        0.1674
     17 F         140.7753  144.8118  170.0547 F       1  UNL1       -0.2018
     18 C         140.0978  142.4390  169.2419 C.ar    1  UNL1        0.0336
     19 C         139.9949  138.5353  162.6562 C.3     1  UNL1        0.0991
     20 N         139.8047  139.5671  161.5842 N.3     1  UNL1       -0.2688
     21 C         140.8131  140.6641  161.4117 C.3     1  UNL1        0.0751
     22 C         140.6229  141.6958  160.3397 C.3     1  UNL1        0.0489
     23 C         139.4244  141.6305  159.4401 C.3     1  UNL1        0.1157
     24 C         138.4160  140.5336  159.6125 C.3     1  UNL1        0.0489
     25 C         138.6062  139.5018  160.6846 C.3     1  UNL1        0.0751
     26 O         138.2818  141.6941  158.4703 O.3     1  UNL1       -0.3496
     27 C         138.4946  142.8828  157.5804 C.3     1  UNL1        0.1687
     28 C         139.7688  143.5539  158.0002 C.ar    1  UNL1        0.0108
     29 C         140.4801  144.7696  157.4845 C.ar    1  UNL1        0.0476
     30 C         141.7659  145.2115  158.1180 C.ar    1  UNL1        0.2221
     31 F         142.4771  146.4272  157.6022 F       1  UNL1       -0.1832
     32 N         142.3405  144.4376  159.2673 N.ar    1  UNL1       -0.2167
     33 C         141.6293  143.2218  159.7831 C.ar    1  UNL1        0.0990
     34 C         140.3434  142.7800  159.1495 C.ar    1  UNL1        0.0198
@<TRIPOS>BOND
     1     7     8    1
     2     8     9    2
     3     9     1    1
     4     1     2   ar
     5     2     3   ar
     6     3     4   ar
     7     4    19    1
     8    19    20    1
     9    20    21    1
    10    21    22    1
    11    22    23    1
    12    23    24    1
    13    24    25    1
    14    23    26    1
    15    26    27    1
    16    27    28    1
    17    28    29   ar
    18    29    30   ar
    19    30    31    1
    20    30    32   ar
    21    32    33   ar
    22    33    34   ar
    23     4     5   ar
    24     5     6   ar
    25     9    11    1
    26    11    12   ar
    27    12    13   ar
    28    13    14   ar
    29    14    15    1
    30    14    16   ar
    31    16    17    1
    32    16    18   ar
    33     6     1   ar
    34    18    11   ar
    35    25    20    1
    36    34    28   ar
    37    34    23    1
    38     7    10    1
@<TRIPOS>MOLECULE
*****
 34 38 0 0 0
SMALL
GASTEIGER

@<TRIPOS>ATOM
      1 C         139.6681  139.4149  167.0041 C.ar    1  UNL1        0.0208
      2 C         138.5141  138.7939  166.2743 C.ar    1  UNL1        0.0013
      3 C         138.7049  138.2591  164.8860 C.ar    1  UNL1       -0.0029
      4 C         140.0499  138.3452  164.2274 C.ar    1  UNL1       -0.0061
      5 C         141.2039  138.9662  164.9571 C.ar    1  UNL1       -0.0029
      6 C         141.0130  139.5010  166.3455 C.ar    1  UNL1        0.0013
      7 O         138.0760  140.0930  170.5755 O.2     1  UNL1       -0.4087
      8 N         138.2669  139.5582  169.1872 N.2     1  UNL1       -0.0864
      9 C         139.4773  139.9498  168.3924 C.2     1  UNL1        0.1192
     10 H         137.3200  139.8484  171.0720 H       1  UNL1        0.3278
     11 C         140.4968  140.8762  168.9859 C.ar    1  UNL1        0.0232
     12 C         141.8546  140.3583  169.3575 C.ar    1  UNL1        0.0041
     13 C         142.8741  141.2847  169.9511 C.ar    1  UNL1        0.0320
     14 C         142.5358  142.7291  170.1731 C.ar    1  UNL1        0.1674
     15 F         143.5553  143.6555  170.7667 F       1  UNL1       -0.2018
     16 C         141.1779  143.2471  169.8015 C.ar    1  UNL1        0.1674
     17 F         140.8396  144.6914  170.0236 F       1  UNL1       -0.2018
     18 C         140.1584  142.3206  169.2080 C.ar    1  UNL1        0.0336
     19 C         140.2407  137.8103  162.8390 C.3     1  UNL1        0.0991
     20 N         141.0512  138.5843  161.8419 N.3     1  UNL1       -0.2688
     21 C         140.6815  140.0001  161.5122 C.3     1  UNL1        0.0751
     22 C         141.4919  140.7740  160.5151 C.3     1  UNL1        0.0489
     23 C         142.6720  140.1321  159.8477 C.3     1  UNL1        0.1157
     24 C         143.0417  138.7163  160.1775 C.3     1  UNL1        0.0489
     25 C         142.2313  137.9424  161.1746 C.3     1  UNL1        0.0751
     26 O         143.8723  139.6259  159.1040 O.3     1  UNL1       -0.3496
     27 C         144.3666  140.7291  158.2158 C.3     1  UNL1        0.1687
     28 C         143.4718  141.9172  158.4108 C.ar    1  UNL1        0.0108
     29 C         143.4753  143.2873  157.8002 C.ar    1  UNL1        0.0476
     30 C         142.4316  144.2884  158.1981 C.ar    1  UNL1        0.2221
     31 F         142.4352  145.6585  157.5876 F       1  UNL1       -0.1832
     32 N         141.3843  143.9195  159.2067 N.ar    1  UNL1       -0.2167
     33 C         141.3808  142.5494  159.8173 C.ar    1  UNL1        0.0990
     34 C         142.4245  141.5483  159.4193 C.ar    1  UNL1        0.0198
@<TRIPOS>BOND
     1     7     8    1
     2     8     9    2
     3     9     1    1
     4     1     2   ar
     5     2     3   ar
     6     3     4   ar
     7     4    19    1
     8    19    20    1
     9    20    21    1
    10    21    22    1
    11    22    23    1
    12    23    24    1
    13    24    25    1
    14    23    26    1
    15    26    27    1
    16    27    28    1
    17    28    29   ar
    18    29    30   ar
    19    30    31    1
    20    30    32   ar
    21    32    33   ar
    22    33    34   ar
    23     4     5   ar
    24     5     6   ar
    25     9    11    1
    26    11    12   ar
    27    12    13   ar
    28    13    14   ar
    29    14    15    1
    30    14    16   ar
    31    16    17    1
    32    16    18   ar
    33     6     1   ar
    34    18    11   ar
    35    25    20    1
    36    34    28   ar
    37    34    23    1
    38     7    10    1
@<TRIPOS>MOLECULE
*****
 34 38 0 0 0
SMALL
GASTEIGER

@<TRIPOS>ATOM
      1 C         141.9807  137.4222  157.3637 C.ar    1  UNL1        0.0208
      2 C         140.6016  137.6766  156.8313 C.ar    1  UNL1        0.0013
      3 C         139.6262  138.4873  157.6322 C.ar    1  UNL1       -0.0029
      4 C         140.0299  139.0436  158.9655 C.ar    1  UNL1       -0.0061
      5 C         141.4090  138.7892  159.4979 C.ar    1  UNL1       -0.0029
      6 C         142.3843  137.9785  158.6970 C.ar    1  UNL1        0.0013
      7 O         145.0631  136.4795  155.0486 O.2     1  UNL1       -0.4087
      8 N         144.0877  137.2902  155.8494 N.2     1  UNL1       -0.0864
      9 C         142.9560  136.6116  156.5629 C.2     1  UNL1        0.1192
     10 H         145.7700  136.9034  154.6029 H       1  UNL1        0.3278
     11 C         142.7998  135.1223  156.4754 C.ar    1  UNL1        0.0232
     12 C         141.7583  134.5291  155.5735 C.ar    1  UNL1        0.0041
     13 C         141.6021  133.0398  155.4860 C.ar    1  UNL1        0.0320
     14 C         142.4874  132.1437  156.3004 C.ar    1  UNL1        0.1674
     15 F         142.3312  130.6545  156.2129 F       1  UNL1       -0.2018
     16 C         143.5289  132.7369  157.2023 C.ar    1  UNL1        0.1674
     17 F         144.4142  131.8408  158.0167 F       1  UNL1       -0.2018
     18 C         143.6852  134.2262  157.2898 C.ar    1  UNL1        0.0336
     19 C         139.0545  139.8543  159.7664 C.3     1  UNL1        0.0991
     20 N         139.0693  139.7798  161.2645 N.3     1  UNL1       -0.2688
     21 C         139.6575  140.9034  162.0655 C.3     1  UNL1        0.0751
     22 C         139.6723  140.8289  163.5635 C.3     1  UNL1        0.0489
     23 C         139.0988  139.6309  164.2606 C.3     1  UNL1        0.1157
     24 C         138.5105  138.5073  163.4596 C.3     1  UNL1        0.0489
     25 C         138.4958  138.5818  161.9616 C.3     1  UNL1        0.0751
     26 O         138.5648  138.5027  165.0926 O.3     1  UNL1       -0.3496
     27 C         138.7861  138.8461  166.5360 C.3     1  UNL1        0.1687
     28 C         139.4569  140.1865  166.5960 C.ar    1  UNL1        0.0108
     29 C         139.9166  141.0280  167.7494 C.ar    1  UNL1        0.0476
     30 C         140.5696  142.3545  167.4966 C.ar    1  UNL1        0.2221
     31 F         141.0294  143.1960  168.6501 F       1  UNL1       -0.1832
     32 N         140.7629  142.8396  166.0904 N.ar    1  UNL1       -0.2167
     33 C         140.3031  141.9980  164.9370 C.ar    1  UNL1        0.0990
     34 C         139.6501  140.6715  165.1898 C.ar    1  UNL1        0.0198
@<TRIPOS>BOND
     1     7     8    1
     2     8     9    2
     3     9     1    1
     4     1     2   ar
     5     2     3   ar
     6     3     4   ar
     7     4    19    1
     8    19    20    1
     9    20    21    1
    10    21    22    1
    11    22    23    1
    12    23    24    1
    13    24    25    1
    14    23    26    1
    15    26    27    1
    16    27    28    1
    17    28    29   ar
    18    29    30   ar
    19    30    31    1
    20    30    32   ar
    21    32    33   ar
    22    33    34   ar
    23     4     5   ar
    24     5     6   ar
    25     9    11    1
    26    11    12   ar
    27    12    13   ar
    28    13    14   ar
    29    14    15    1
    30    14    16   ar
    31    16    17    1
    32    16    18   ar
    33     6     1   ar
    34    18    11   ar
    35    25    20    1
    36    34    28   ar
    37    34    23    1
    38     7    10    1
@<TRIPOS>MOLECULE
*****
 34 38 0 0 0
SMALL
GASTEIGER

@<TRIPOS>ATOM
      1 C         138.8913  139.4594  165.9837 C.ar    1  UNL1        0.0208
      2 C         138.3293  140.5330  165.0997 C.ar    1  UNL1        0.0013
      3 C         138.1420  140.2759  163.6339 C.ar    1  UNL1       -0.0029
      4 C         138.5167  138.9450  163.0520 C.ar    1  UNL1       -0.0061
      5 C         139.0786  137.8714  163.9360 C.ar    1  UNL1       -0.0029
      6 C         139.2659  138.1286  165.4019 C.ar    1  UNL1        0.0013
      7 O         138.2171  139.5347  169.8939 O.2     1  UNL1       -0.4087
      8 N         138.0298  139.2776  168.4281 N.2     1  UNL1       -0.0864
      9 C         139.0786  139.7166  167.4496 C.2     1  UNL1        0.1192
     10 H         137.5620  139.2605  170.5052 H       1  UNL1        0.3278
     11 C         140.3146  140.4127  167.9370 C.ar    1  UNL1        0.0232
     12 C         141.6535  139.7518  167.7939 C.ar    1  UNL1        0.0041
     13 C         142.8895  140.4479  168.2813 C.ar    1  UNL1        0.0320
     14 C         142.7867  141.8051  168.9118 C.ar    1  UNL1        0.1674
     15 F         144.0227  142.5013  169.3992 F       1  UNL1       -0.2018
     16 C         141.4478  142.4662  169.0548 C.ar    1  UNL1        0.1674
     17 F         141.3449  143.8233  169.6853 F       1  UNL1       -0.2018
     18 C         140.2117  141.7700  168.5674 C.ar    1  UNL1        0.0336
     19 C         138.3294  138.6878  161.5861 C.3     1  UNL1        0.0991
     20 N         138.7958  139.6995  160.5815 N.3     1  UNL1       -0.2688
     21 C         137.8173  140.3110  159.6232 C.3     1  UNL1        0.0751
     22 C         138.2837  141.3226  158.6187 C.3     1  UNL1        0.0489
     23 C         139.7286  141.7226  158.5725 C.3     1  UNL1        0.1157
     24 C         140.7071  141.1111  159.5309 C.3     1  UNL1        0.0489
     25 C         140.2407  140.0995  160.5354 C.3     1  UNL1        0.0751
     26 O         141.1348  142.2184  158.4082 O.3     1  UNL1       -0.3496
     27 C         141.1460  143.2183  157.2900 C.3     1  UNL1        0.1687
     28 C         139.7468  143.3404  156.7633 C.ar    1  UNL1        0.0108
     29 C         139.1571  144.1739  155.6644 C.ar    1  UNL1        0.0476
     30 C         137.6916  144.0831  155.3581 C.ar    1  UNL1        0.2221
     31 F         137.1020  144.9165  154.2592 F       1  UNL1       -0.1832
     32 N         136.8156  143.1587  156.1507 N.ar    1  UNL1       -0.2167
     33 C         137.4052  142.3252  157.2496 C.ar    1  UNL1        0.0990
     34 C         138.8708  142.4161  157.5559 C.ar    1  UNL1        0.0198
@<TRIPOS>BOND
     1     7     8    1
     2     8     9    2
     3     9     1    1
     4     1     2   ar
     5     2     3   ar
     6     3     4   ar
     7     4    19    1
     8    19    20    1
     9    20    21    1
    10    21    22    1
    11    22    23    1
    12    23    24    1
    13    24    25    1
    14    23    26    1
    15    26    27    1
    16    27    28    1
    17    28    29   ar
    18    29    30   ar
    19    30    31    1
    20    30    32   ar
    21    32    33   ar
    22    33    34   ar
    23     4     5   ar
    24     5     6   ar
    25     9    11    1
    26    11    12   ar
    27    12    13   ar
    28    13    14   ar
    29    14    15    1
    30    14    16   ar
    31    16    17    1
    32    16    18   ar
    33     6     1   ar
    34    18    11   ar
    35    25    20    1
    36    34    28   ar
    37    34    23    1
    38     7    10    1
@<TRIPOS>MOLECULE
*****
 34 38 0 0 0
SMALL
GASTEIGER

@<TRIPOS>ATOM
      1 C         142.8996  139.6663  166.8574 C.ar    1  UNL1        0.0208
      2 C         143.7470  138.6526  166.1472 C.ar    1  UNL1        0.0013
      3 C         144.0473  138.8170  164.6868 C.ar    1  UNL1       -0.0029
      4 C         143.5004  139.9952  163.9366 C.ar    1  UNL1       -0.0061
      5 C         142.6530  141.0089  164.6468 C.ar    1  UNL1       -0.0029
      6 C         142.3526  140.8444  166.1072 C.ar    1  UNL1        0.0013
      7 O         142.8713  138.1760  170.5355 O.2     1  UNL1       -0.4087
      8 N         143.1717  138.3405  169.0751 N.2     1  UNL1       -0.0864
      9 C         142.5992  139.5018  168.3177 C.2     1  UNL1        0.1192
     10 H         143.2289  137.4506  171.0085 H       1  UNL1        0.3278
     11 C         141.7264  140.4987  169.0208 C.ar    1  UNL1        0.0232
     12 C         142.2853  141.8301  169.4270 C.ar    1  UNL1        0.0041
     13 C         141.4124  142.8270  170.1301 C.ar    1  UNL1        0.0320
     14 C         139.9807  142.4926  170.4270 C.ar    1  UNL1        0.1674
     15 F         139.1078  143.4895  171.1300 F       1  UNL1       -0.2018
     16 C         139.4217  141.1611  170.0208 C.ar    1  UNL1        0.1674
     17 F         137.9900  140.8266  170.3177 F       1  UNL1       -0.2018
     18 C         140.2946  140.1642  169.3177 C.ar    1  UNL1        0.0336
     19 C         143.8007  140.1596  162.4762 C.3     1  UNL1        0.0991
     20 N         142.8375  140.8927  161.5903 N.3     1  UNL1       -0.2688
     21 C         141.7048  140.1543  160.9409 C.3     1  UNL1        0.0751
     22 C         140.7417  140.8874  160.0550 C.3     1  UNL1        0.0489
     23 C         140.9112  142.3589  159.8185 C.3     1  UNL1        0.1157
     24 C         142.0439  143.0973  160.4678 C.3     1  UNL1        0.0489
     25 C         143.0071  142.3642  161.3537 C.3     1  UNL1        0.0751
     26 O         140.9534  143.8220  159.4905 O.3     1  UNL1       -0.3496
     27 C         139.8049  144.1250  158.5743 C.3     1  UNL1        0.1687
     28 C         139.0530  142.8490  158.3359 C.ar    1  UNL1        0.0108
     29 C         137.8342  142.5401  157.5181 C.ar    1  UNL1        0.0476
     30 C         137.2990  141.1397  157.4692 C.ar    1  UNL1        0.2221
     31 F         136.0801  140.8308  156.6513 F       1  UNL1       -0.1832
     32 N         137.9827  140.0482  158.2381 N.ar    1  UNL1       -0.2167
     33 C         139.2016  140.3571  159.0559 C.ar    1  UNL1        0.0990
     34 C         139.7367  141.7576  159.1049 C.ar    1  UNL1        0.0198
@<TRIPOS>BOND
     1     7     8    1
     2     8     9    2
     3     9     1    1
     4     1     2   ar
     5     2     3   ar
     6     3     4   ar
     7     4    19    1
     8    19    20    1
     9    20    21    1
    10    21    22    1
    11    22    23    1
    12    23    24    1
    13    24    25    1
    14    23    26    1
    15    26    27    1
    16    27    28    1
    17    28    29   ar
    18    29    30   ar
    19    30    31    1
    20    30    32   ar
    21    32    33   ar
    22    33    34   ar
    23     4     5   ar
    24     5     6   ar
    25     9    11    1
    26    11    12   ar
    27    12    13   ar
    28    13    14   ar
    29    14    15    1
    30    14    16   ar
    31    16    17    1
    32    16    18   ar
    33     6     1   ar
    34    18    11   ar
    35    25    20    1
    36    34    28   ar
    37    34    23    1
    38     7    10    1
@<TRIPOS>MOLECULE
*****
 34 38 0 0 0
SMALL
GASTEIGER

@<TRIPOS>ATOM
      1 C         142.0880  139.1976  167.0162 C.ar    1  UNL1        0.0208
      2 C         140.7842  139.4770  166.3292 C.ar    1  UNL1        0.0013
      3 C         140.6514  139.2521  164.8522 C.ar    1  UNL1       -0.0029
      4 C         141.8225  138.7478  164.0620 C.ar    1  UNL1       -0.0061
      5 C         143.1263  138.4683  164.7490 C.ar    1  UNL1       -0.0029
      6 C         143.2590  138.6932  166.2262 C.ar    1  UNL1        0.0013
      7 O         143.2854  138.7935  170.7783 O.2     1  UNL1       -0.4087
      8 N         143.1527  138.5686  169.3012 N.2     1  UNL1       -0.0864
      9 C         142.2207  139.4224  168.4933 C.2     1  UNL1        0.1192
     10 H         143.8676  138.2602  171.2829 H       1  UNL1        0.3278
     11 C         141.4216  140.5011  169.1625 C.ar    1  UNL1        0.0232
     12 C         140.0211  140.2218  169.6214 C.ar    1  UNL1        0.0041
     13 C         139.2220  141.3005  170.2907 C.ar    1  UNL1        0.0320
     14 C         139.8234  142.6584  170.5010 C.ar    1  UNL1        0.1674
     15 F         139.0242  143.7371  171.1703 F       1  UNL1       -0.2018
     16 C         141.2239  142.9378  170.0422 C.ar    1  UNL1        0.1674
     17 F         141.8253  144.2957  170.2525 F       1  UNL1       -0.2018
     18 C         142.0231  141.8591  169.3729 C.ar    1  UNL1        0.0336
     19 C         141.6897  138.5229  162.5850 C.3     1  UNL1        0.0991
     20 N         142.0125  139.6300  161.6257 N.3     1  UNL1       -0.2688
     21 C         141.0216  140.7312  161.3904 C.3     1  UNL1        0.0751
     22 C         141.3444  141.8383  160.4312 C.3     1  UNL1        0.0489
     23 C         142.6582  141.8442  159.7073 C.3     1  UNL1        0.1157
     24 C         143.6491  140.7430  159.9426 C.3     1  UNL1        0.0489
     25 C         143.3263  139.6359  160.9018 C.3     1  UNL1        0.0751
     26 O         143.9244  141.9833  158.9153 O.3     1  UNL1       -0.3496
     27 C         143.8202  143.2317  158.0901 C.3     1  UNL1        0.1687
     28 C         142.4896  143.8641  158.3722 C.ar    1  UNL1        0.0108
     29 C         141.8391  145.1100  157.8481 C.ar    1  UNL1        0.0476
     30 C         140.4705  145.4983  158.3235 C.ar    1  UNL1        0.2221
     31 F         139.8200  146.7442  157.7994 F       1  UNL1       -0.1832
     32 N         139.7522  144.6408  159.3229 N.ar    1  UNL1       -0.2167
     33 C         140.4027  143.3949  159.8470 C.ar    1  UNL1        0.0990
     34 C         141.7714  143.0066  159.3717 C.ar    1  UNL1        0.0198
@<TRIPOS>BOND
     1     7     8    1
     2     8     9    2
     3     9     1    1
     4     1     2   ar
     5     2     3   ar
     6     3     4   ar
     7     4    19    1
     8    19    20    1
     9    20    21    1
    10    21    22    1
    11    22    23    1
    12    23    24    1
    13    24    25    1
    14    23    26    1
    15    26    27    1
    16    27    28    1
    17    28    29   ar
    18    29    30   ar
    19    30    31    1
    20    30    32   ar
    21    32    33   ar
    22    33    34   ar
    23     4     5   ar
    24     5     6   ar
    25     9    11    1
    26    11    12   ar
    27    12    13   ar
    28    13    14   ar
    29    14    15    1
    30    14    16   ar
    31    16    17    1
    32    16    18   ar
    33     6     1   ar
    34    18    11   ar
    35    25    20    1
    36    34    28   ar
    37    34    23    1
    38     7    10    1
@<TRIPOS>MOLECULE
*****
 34 38 0 0 0
SMALL
GASTEIGER

@<TRIPOS>ATOM
      1 C         142.9344  140.2023  166.4006 C.ar    1  UNL1        0.0208
      2 C         143.4103  139.1387  165.4561 C.ar    1  UNL1        0.0013
      3 C         143.7005  139.4817  164.0250 C.ar    1  UNL1       -0.0029
      4 C         143.5150  140.8885  163.5384 C.ar    1  UNL1       -0.0061
      5 C         143.0392  141.9521  164.4830 C.ar    1  UNL1       -0.0029
      6 C         142.7489  141.6090  165.9141 C.ar    1  UNL1        0.0013
      7 O         142.9373  138.2748  169.8697 O.2     1  UNL1       -0.4087
      8 N         143.2276  138.6178  168.4386 N.2     1  UNL1       -0.0864
      9 C         142.6441  139.8593  167.8317 C.2     1  UNL1        0.1192
     10 H         143.3018  137.4992  170.2488 H       1  UNL1        0.3278
     11 C         141.7704  140.7578  168.6560 C.ar    1  UNL1        0.0232
     12 C         142.2837  142.0917  169.1110 C.ar    1  UNL1        0.0041
     13 C         141.4100  142.9902  169.9352 C.ar    1  UNL1        0.0320
     14 C         140.0230  142.5547  170.3044 C.ar    1  UNL1        0.1674
     15 F         139.1492  143.4531  171.1287 F       1  UNL1       -0.2018
     16 C         139.5096  141.2207  169.8494 C.ar    1  UNL1        0.1674
     17 F         138.1225  140.7852  170.2187 F       1  UNL1       -0.2018
     18 C         140.3833  140.3222  169.0252 C.ar    1  UNL1        0.0336
     19 C         143.8053  141.2315  162.1073 C.3     1  UNL1        0.0991
     20 N         142.9434  140.6749  161.0130 N.3     1  UNL1       -0.2688
     21 C         143.3786  139.4495  160.2654 C.3     1  UNL1        0.0751
     22 C         142.5168  138.8931  159.1711 C.3     1  UNL1        0.0489
     23 C         141.2198  139.5620  158.8244 C.3     1  UNL1        0.1157
     24 C         140.7846  140.7874  159.5720 C.3     1  UNL1        0.0489
     25 C         141.6464  141.3439  160.6663 C.3     1  UNL1        0.0751
     26 O         139.9041  140.1198  158.3684 O.3     1  UNL1       -0.3496
     27 C         139.3934  139.2525  157.2560 C.3     1  UNL1        0.1687
     28 C         140.3936  138.1587  157.0246 C.ar    1  UNL1        0.0108
     29 C         140.4223  137.0133  156.0565 C.ar    1  UNL1        0.0476
     30 C         141.5797  136.0593  156.0576 C.ar    1  UNL1        0.2221
     31 F         141.6084  134.9139  155.0896 F       1  UNL1       -0.1832
     32 N         142.7085  136.2505  157.0269 N.ar    1  UNL1       -0.2167
     33 C         142.6797  137.3959  157.9950 C.ar    1  UNL1        0.0990
     34 C         141.5223  138.3500  157.9938 C.ar    1  UNL1        0.0198
@<TRIPOS>BOND
     1     7     8    1
     2     8     9    2
     3     9     1    1
     4     1     2   ar
     5     2     3   ar
     6     3     4   ar
     7     4    19    1
     8    19    20    1
     9    20    21    1
    10    21    22    1
    11    22    23    1
    12    23    24    1
    13    24    25    1
    14    23    26    1
    15    26    27    1
    16    27    28    1
    17    28    29   ar
    18    29    30   ar
    19    30    31    1
    20    30    32   ar
    21    32    33   ar
    22    33    34   ar
    23     4     5   ar
    24     5     6   ar
    25     9    11    1
    26    11    12   ar
    27    12    13   ar
    28    13    14   ar
    29    14    15    1
    30    14    16   ar
    31    16    17    1
    32    16    18   ar
    33     6     1   ar
    34    18    11   ar
    35    25    20    1
    36    34    28   ar
    37    34    23    1
    38     7    10    1
@<TRIPOS>MOLECULE
*****
 34 38 0 0 0
SMALL
GASTEIGER

@<TRIPOS>ATOM
      1 C         141.9555  137.3865  157.4738 C.ar    1  UNL1        0.0208
      2 C         140.6195  137.7548  156.9000 C.ar    1  UNL1        0.0013
      3 C         139.6392  138.5364  157.7234 C.ar    1  UNL1       -0.0029
      4 C         139.9951  138.9498  159.1208 C.ar    1  UNL1       -0.0061
      5 C         141.3311  138.5815  159.6946 C.ar    1  UNL1       -0.0029
      6 C         142.3114  137.7998  158.8711 C.ar    1  UNL1        0.0013
      7 O         145.0150  136.5341  155.0941 O.2     1  UNL1       -0.4087
      8 N         144.0348  137.3158  155.9176 N.2     1  UNL1       -0.0864
      9 C         142.9358  136.6049  156.6503 C.2     1  UNL1        0.1192
     10 H         145.7015  136.9782  154.6364 H       1  UNL1        0.3278
     11 C         142.8170  135.1123  156.5595 C.ar    1  UNL1        0.0232
     12 C         143.6729  134.2377  157.4269 C.ar    1  UNL1        0.0041
     13 C         143.5542  132.7452  157.3361 C.ar    1  UNL1        0.0320
     14 C         142.5795  132.1273  156.3779 C.ar    1  UNL1        0.1674
     15 F         142.4608  130.6347  156.2871 F       1  UNL1       -0.2018
     16 C         141.7236  133.0019  155.5104 C.ar    1  UNL1        0.1674
     17 F         140.7489  132.3840  154.5522 F       1  UNL1       -0.2018
     18 C         141.8423  134.4944  155.6012 C.ar    1  UNL1        0.0336
     19 C         139.0148  139.7314  159.9443 C.3     1  UNL1        0.0991
     20 N         139.4351  140.3075  161.2640 N.3     1  UNL1       -0.2688
     21 C         139.0116  139.6442  162.5409 C.3     1  UNL1        0.0751
     22 C         139.4319  140.2203  163.8605 C.3     1  UNL1        0.0489
     23 C         140.2758  141.4596  163.9032 C.3     1  UNL1        0.1157
     24 C         140.6993  142.1230  162.6263 C.3     1  UNL1        0.0489
     25 C         140.2790  141.5469  161.3067 C.3     1  UNL1        0.0751
     26 O         141.1148  142.6870  164.1024 O.3     1  UNL1       -0.3496
     27 C         141.2885  142.8954  165.5778 C.3     1  UNL1        0.1687
     28 C         140.5567  141.7968  166.2904 C.ar    1  UNL1        0.0108
     29 C         140.3794  141.4899  167.7479 C.ar    1  UNL1        0.0476
     30 C         139.5762  140.2957  168.1705 C.ar    1  UNL1        0.2221
     31 F         139.3989  139.9887  169.6280 F       1  UNL1       -0.1832
     32 N         138.9503  139.4083  167.1356 N.ar    1  UNL1       -0.2167
     33 C         139.1276  139.7152  165.6781 C.ar    1  UNL1        0.0990
     34 C         139.9308  140.9095  165.2555 C.ar    1  UNL1        0.0198
@<TRIPOS>BOND
     1     7     8    1
     2     8     9    2
     3     9     1    1
     4     1     2   ar
     5     2     3   ar
     6     3     4   ar
     7     4    19    1
     8    19    20    1
     9    20    21    1
    10    21    22    1
    11    22    23    1
    12    23    24    1
    13    24    25    1
    14    23    26    1
    15    26    27    1
    16    27    28    1
    17    28    29   ar
    18    29    30   ar
    19    30    31    1
    20    30    32   ar
    21    32    33   ar
    22    33    34   ar
    23     4     5   ar
    24     5     6   ar
    25     9    11    1
    26    11    12   ar
    27    12    13   ar
    28    13    14   ar
    29    14    15    1
    30    14    16   ar
    31    16    17    1
    32    16    18   ar
    33     6     1   ar
    34    18    11   ar
    35    25    20    1
    36    34    28   ar
    37    34    23    1
    38     7    10    1
@<TRIPOS>MOLECULE
*****
 34 38 0 0 0
SMALL
GASTEIGER

@<TRIPOS>ATOM
      1 C         140.4183  140.1142  166.0432 C.ar    1  UNL1        0.0208
      2 C         140.5831  141.3335  165.1852 C.ar    1  UNL1        0.0013
      3 C         140.9363  141.1878  163.7348 C.ar    1  UNL1       -0.0029
      4 C         141.1247  139.8227  163.1422 C.ar    1  UNL1       -0.0061
      5 C         140.9599  138.6034  164.0001 C.ar    1  UNL1       -0.0029
      6 C         140.6067  138.7492  165.4507 C.ar    1  UNL1        0.0013
      7 O         138.5322  139.6693  169.5065 O.2     1  UNL1       -0.4087
      8 N         138.8854  139.5236  168.0561 N.2     1  UNL1       -0.0864
      9 C         140.0651  140.2600  167.4937 C.2     1  UNL1        0.1192
     10 H         137.7953  139.2093  169.8578 H       1  UNL1        0.3278
     11 C         140.8915  141.1421  168.3819 C.ar    1  UNL1        0.0232
     12 C         142.2329  140.6753  168.8640 C.ar    1  UNL1        0.0041
     13 C         143.0594  141.5574  169.7522 C.ar    1  UNL1        0.0320
     14 C         142.5443  142.9063  170.1583 C.ar    1  UNL1        0.1674
     15 F         143.3707  143.7885  171.0465 F       1  UNL1       -0.2018
     16 C         141.2027  143.3732  169.6763 C.ar    1  UNL1        0.1674
     17 F         140.6876  144.7222  170.0824 F       1  UNL1       -0.2018
     18 C         140.3763  142.4911  168.7880 C.ar    1  UNL1        0.0336
     19 C         141.4779  139.6770  161.6917 C.3     1  UNL1        0.0991
     20 N         140.5166  140.1365  160.6358 N.3     1  UNL1       -0.2688
     21 C         140.7717  141.4155  159.8948 C.3     1  UNL1        0.0751
     22 C         139.8104  141.8751  158.8390 C.3     1  UNL1        0.0489
     23 C         138.5941  141.0556  158.5242 C.3     1  UNL1        0.1157
     24 C         138.3391  139.7766  159.2652 C.3     1  UNL1        0.0489
     25 C         139.3003  139.3171  160.3210 C.3     1  UNL1        0.0751
     26 O         137.3419  140.3455  158.1026 O.3     1  UNL1       -0.3496
     27 C         136.6901  141.1570  157.0224 C.3     1  UNL1        0.1687
     28 C         137.5396  142.3686  156.7763 C.ar    1  UNL1        0.0108
     29 C         137.3937  143.5208  155.8271 C.ar    1  UNL1        0.0476
     30 C         138.4244  144.6103  155.8059 C.ar    1  UNL1        0.2221
     31 F         138.2785  145.7625  154.8567 F       1  UNL1       -0.1832
     32 N         139.6012  144.5477  156.7341 N.ar    1  UNL1       -0.2167
     33 C         139.7471  143.3955  157.6833 C.ar    1  UNL1        0.0990
     34 C         138.7163  142.3059  157.7045 C.ar    1  UNL1        0.0198
@<TRIPOS>BOND
     1     7     8    1
     2     8     9    2
     3     9     1    1
     4     1     2   ar
     5     2     3   ar
     6     3     4   ar
     7     4    19    1
     8    19    20    1
     9    20    21    1
    10    21    22    1
    11    22    23    1
    12    23    24    1
    13    24    25    1
    14    23    26    1
    15    26    27    1
    16    27    28    1
    17    28    29   ar
    18    29    30   ar
    19    30    31    1
    20    30    32   ar
    21    32    33   ar
    22    33    34   ar
    23     4     5   ar
    24     5     6   ar
    25     9    11    1
    26    11    12   ar
    27    12    13   ar
    28    13    14   ar
    29    14    15    1
    30    14    16   ar
    31    16    17    1
    32    16    18   ar
    33     6     1   ar
    34    18    11   ar
    35    25    20    1
    36    34    28   ar
    37    34    23    1
    38     7    10    1
