@<TRIPOS>MOLECULE
*****
 23 25 0 0 0
SMALL
GASTEIGER

@<TRIPOS>ATOM
      1 N         137.9455  140.4565  164.3306 N.ar    1  UNL1       -0.2244
      2 C         137.9402  141.9538  164.4210 C.ar    1  UNL1        0.1329
      3 C         137.6765  142.5000  163.0490 C.ar    1  UNL1        0.1709
      4 N         137.5189  141.3403  162.1107 N.ar    1  UNL1       -0.1138
      5 N         137.6851  140.0774  162.9028 N.ar    1  UNL1       -0.0622
      6 N         137.5864  143.9512  162.6801 N.pl3   1  UNL1       -0.3142
      7 H         136.7239  144.3355  162.4013 H       1  UNL1        0.1483
      8 C         138.8101  144.8166  162.7360 C.3     1  UNL1        0.1058
      9 C         139.5049  145.0495  164.0447 C.3     1  UNL1        0.0936
     10 N         140.9257  144.6051  164.2292 N.3     1  UNL1       -0.2712
     11 C         141.2244  143.3381  164.9747 C.3     1  UNL1        0.0721
     12 C         142.6451  142.8937  165.1591 C.3     1  UNL1        0.0174
     13 C         143.7671  143.7162  164.5981 C.3     1  UNL1        0.0029
     14 C         143.4684  144.9831  163.8526 C.3     1  UNL1        0.0174
     15 C         142.0476  145.4275  163.6682 C.3     1  UNL1        0.0721
     16 C         138.1714  139.5053  165.4682 C.3     1  UNL1        0.1556
     17 F         143.1262  139.9616  168.8212 F       1  UNL1       -0.2042
     18 C         141.8875  139.8475  167.9829 C.ar    1  UNL1        0.1401
     19 C         140.5401  140.0765  168.6008 C.ar    1  UNL1        0.0294
     20 C         139.3014  139.9625  167.7626 C.ar    1  UNL1       -0.0000
     21 C         139.4101  139.6194  166.3065 C.ar    1  UNL1        0.0023
     22 C         140.7576  139.3904  165.6885 C.ar    1  UNL1       -0.0000
     23 C         141.9963  139.5045  166.5268 C.ar    1  UNL1        0.0294
@<TRIPOS>BOND
     1    17    18    1
     2    18    19   ar
     3    19    20   ar
     4    20    21   ar
     5    21    16    1
     6    16     1    1
     7     1     2   ar
     8     2     3   ar
     9     3     6    1
    10     6     8    1
    11     8     9    1
    12     9    10    1
    13    10    11    1
    14    11    12    1
    15    12    13    1
    16    13    14    1
    17    14    15    1
    18     3     4   ar
    19     4     5   ar
    20    21    22   ar
    21    22    23   ar
    22    23    18   ar
    23     5     1   ar
    24    15    10    1
    25     6     7    1
@<TRIPOS>MOLECULE
*****
 23 25 0 0 0
SMALL
GASTEIGER

@<TRIPOS>ATOM
      1 N         141.0757  145.2853  163.0892 N.ar    1  UNL1       -0.2244
      2 C         140.0368  144.2434  163.3811 C.ar    1  UNL1        0.1329
      3 C         138.8078  144.5797  162.5894 C.ar    1  UNL1        0.1709
      4 N         139.0872  145.8294  161.8081 N.ar    1  UNL1       -0.1138
      5 N         140.4888  146.2655  162.1170 N.ar    1  UNL1       -0.0622
      6 N         137.5248  143.8027  162.5805 N.pl3   1  UNL1       -0.3142
      7 H         136.7497  144.1380  162.0744 H       1  UNL1        0.1483
      8 C         137.4226  142.5148  163.3426 C.3     1  UNL1        0.1058
      9 C         137.7267  141.2138  162.6609 C.3     1  UNL1        0.0936
     10 N         138.1373  140.0203  163.4716 N.3     1  UNL1       -0.2712
     11 C         138.1702  140.1060  164.9689 C.3     1  UNL1        0.0721
     12 C         138.5807  138.9126  165.7795 C.3     1  UNL1        0.0174
     13 C         138.9583  137.6334  165.0929 C.3     1  UNL1        0.0029
     14 C         138.9254  137.5478  163.5958 C.3     1  UNL1        0.0174
     15 C         138.5149  138.7412  162.7851 C.3     1  UNL1        0.0721
     16 C         142.4586  145.3379  163.6677 C.3     1  UNL1        0.1556
     17 F         145.6883  140.3076  164.1826 F       1  UNL1       -0.2042
     18 C         144.8809  141.5651  164.0539 C.ar    1  UNL1        0.1401
     19 C         145.0372  142.4361  162.8427 C.ar    1  UNL1        0.0294
     20 C         144.2297  143.6937  162.7140 C.ar    1  UNL1       -0.0000
     21 C         143.2660  144.0803  163.7964 C.ar    1  UNL1        0.0023
     22 C         143.1097  143.2093  165.0076 C.ar    1  UNL1       -0.0000
     23 C         143.9171  141.9518  165.1363 C.ar    1  UNL1        0.0294
@<TRIPOS>BOND
     1    17    18    1
     2    18    19   ar
     3    19    20   ar
     4    20    21   ar
     5    21    16    1
     6    16     1    1
     7     1     2   ar
     8     2     3   ar
     9     3     6    1
    10     6     8    1
    11     8     9    1
    12     9    10    1
    13    10    11    1
    14    11    12    1
    15    12    13    1
    16    13    14    1
    17    14    15    1
    18     3     4   ar
    19     4     5   ar
    20    21    22   ar
    21    22    23   ar
    22    23    18   ar
    23     5     1   ar
    24    15    10    1
    25     6     7    1
@<TRIPOS>MOLECULE
*****
 23 25 0 0 0
SMALL
GASTEIGER

@<TRIPOS>ATOM
      1 N         138.2390  143.0614  162.6428 N.ar    1  UNL1       -0.2244
      2 C         139.2070  143.8786  163.4461 C.ar    1  UNL1        0.1329
      3 C         139.9020  144.8245  162.5119 C.ar    1  UNL1        0.1709
      4 N         139.3634  144.5918  161.1314 N.ar    1  UNL1       -0.1138
      5 N         138.3357  143.5023  161.2123 N.ar    1  UNL1       -0.0622
      6 N         140.9512  145.8269  162.8917 N.pl3   1  UNL1       -0.3142
      7 H         140.8750  146.7594  162.5851 H       1  UNL1        0.1483
      8 C         142.1164  145.4087  163.7385 C.3     1  UNL1        0.1058
      9 C         142.9733  144.2521  163.3167 C.3     1  UNL1        0.0936
     10 N         142.7429  142.8930  163.9081 N.3     1  UNL1       -0.2712
     11 C         143.1027  142.6274  165.3399 C.3     1  UNL1        0.0721
     12 C         142.8722  141.2682  165.9314 C.3     1  UNL1        0.0174
     13 C         142.2820  140.1748  165.0910 C.3     1  UNL1        0.0029
     14 C         141.9223  140.4405  163.6592 C.3     1  UNL1        0.0174
     15 C         142.1527  141.7997  163.0678 C.3     1  UNL1        0.0721
     16 C         137.3334  141.9913  163.1764 C.3     1  UNL1        0.1556
     17 F         139.6477  136.8481  165.2236 F       1  UNL1       -0.2042
     18 C         139.0691  138.1339  164.7118 C.ar    1  UNL1        0.1401
     19 C         138.7735  139.2548  165.6638 C.ar    1  UNL1        0.0294
     20 C         138.1949  140.5406  165.1520 C.ar    1  UNL1       -0.0000
     21 C         137.9120  140.7055  163.6882 C.ar    1  UNL1        0.0023
     22 C         138.2076  139.5847  162.7362 C.ar    1  UNL1       -0.0000
     23 C         138.7862  138.2989  163.2480 C.ar    1  UNL1        0.0294
@<TRIPOS>BOND
     1    17    18    1
     2    18    19   ar
     3    19    20   ar
     4    20    21   ar
     5    21    16    1
     6    16     1    1
     7     1     2   ar
     8     2     3   ar
     9     3     6    1
    10     6     8    1
    11     8     9    1
    12     9    10    1
    13    10    11    1
    14    11    12    1
    15    12    13    1
    16    13    14    1
    17    14    15    1
    18     3     4   ar
    19     4     5   ar
    20    21    22   ar
    21    22    23   ar
    22    23    18   ar
    23     5     1   ar
    24    15    10    1
    25     6     7    1
@<TRIPOS>MOLECULE
*****
 23 25 0 0 0
SMALL
GASTEIGER

@<TRIPOS>ATOM
      1 N         142.3905  142.2483  163.9182 N.ar    1  UNL1       -0.2244
      2 C         142.0324  142.7140  162.5380 C.ar    1  UNL1        0.1329
      3 C         142.2512  144.1969  162.4778 C.ar    1  UNL1        0.1709
      4 N         142.7445  144.6475  163.8209 N.ar    1  UNL1       -0.1138
      5 N         142.8306  143.4432  164.7110 N.ar    1  UNL1       -0.0622
      6 N         142.0177  145.0748  161.2843 N.pl3   1  UNL1       -0.3142
      7 H         142.7831  145.4281  160.7758 H       1  UNL1        0.1483
      8 C         140.6180  145.4144  160.8654 C.3     1  UNL1        0.1058
      9 C         139.5916  145.7718  161.8992 C.3     1  UNL1        0.0936
     10 N         139.0053  144.7039  162.7744 N.3     1  UNL1       -0.2712
     11 C         138.3158  143.5232  162.1573 C.3     1  UNL1        0.0721
     12 C         137.7295  142.4553  163.0325 C.3     1  UNL1        0.0174
     13 C         137.8326  142.5681  164.5247 C.3     1  UNL1        0.0029
     14 C         138.5221  143.7488  165.1418 C.3     1  UNL1        0.0174
     15 C         139.1084  144.8167  164.2666 C.3     1  UNL1        0.0721
     16 C         142.3207  140.8357  164.4179 C.3     1  UNL1        0.1556
     17 F         137.2704  138.7871  166.9274 F       1  UNL1       -0.2042
     18 C         138.5330  139.2992  166.3000 C.ar    1  UNL1        0.1401
     19 C         139.4837  140.1364  167.1034 C.ar    1  UNL1        0.0294
     20 C         140.7462  140.6485  166.4760 C.ar    1  UNL1       -0.0000
     21 C         141.0582  140.3235  165.0452 C.ar    1  UNL1        0.0023
     22 C         140.1075  139.4864  164.2419 C.ar    1  UNL1       -0.0000
     23 C         138.8449  138.9743  164.8693 C.ar    1  UNL1        0.0294
@<TRIPOS>BOND
     1    17    18    1
     2    18    19   ar
     3    19    20   ar
     4    20    21   ar
     5    21    16    1
     6    16     1    1
     7     1     2   ar
     8     2     3   ar
     9     3     6    1
    10     6     8    1
    11     8     9    1
    12     9    10    1
    13    10    11    1
    14    11    12    1
    15    12    13    1
    16    13    14    1
    17    14    15    1
    18     3     4   ar
    19     4     5   ar
    20    21    22   ar
    21    22    23   ar
    22    23    18   ar
    23     5     1   ar
    24    15    10    1
    25     6     7    1
@<TRIPOS>MOLECULE
*****
 23 25 0 0 0
SMALL
GASTEIGER

@<TRIPOS>ATOM
      1 N         138.1003  140.8077  164.4355 N.ar    1  UNL1       -0.2244
      2 C         138.1871  142.3051  164.4496 C.ar    1  UNL1        0.1329
      3 C         137.7123  142.8095  163.1191 C.ar    1  UNL1        0.1709
      4 N         137.3321  141.6238  162.2827 N.ar    1  UNL1       -0.1138
      5 N         137.5718  140.3866  163.0963 N.ar    1  UNL1       -0.0622
      6 N         137.6319  144.2472  162.6988 N.pl3   1  UNL1       -0.3142
      7 H         136.7656  144.6366  162.4397 H       1  UNL1        0.1483
      8 C         138.8714  145.0915  162.6731 C.3     1  UNL1        0.1058
      9 C         140.1166  144.5759  162.0146 C.3     1  UNL1        0.0936
     10 N         141.2727  144.1159  162.8525 N.3     1  UNL1       -0.2712
     11 C         142.2735  145.1110  163.3607 C.3     1  UNL1        0.0721
     12 C         143.4295  144.6510  164.1985 C.3     1  UNL1        0.0174
     13 C         143.5848  143.1959  164.5282 C.3     1  UNL1        0.0029
     14 C         142.5839  142.2008  164.0200 C.3     1  UNL1        0.0174
     15 C         141.4279  142.6608  163.1822 C.3     1  UNL1        0.0721
     16 C         138.4760  139.8921  165.5627 C.3     1  UNL1        0.1556
     17 F         144.1956  138.2386  166.3058 F       1  UNL1       -0.2042
     18 C         142.7657  138.6520  166.1200 C.ar    1  UNL1        0.1401
     19 C         141.9388  138.0261  165.0363 C.ar    1  UNL1        0.0294
     20 C         140.5089  138.4395  164.8505 C.ar    1  UNL1       -0.0000
     21 C         139.9059  139.4787  165.7485 C.ar    1  UNL1        0.0023
     22 C         140.7328  140.1046  166.8322 C.ar    1  UNL1       -0.0000
     23 C         142.1627  139.6912  167.0179 C.ar    1  UNL1        0.0294
@<TRIPOS>BOND
     1    17    18    1
     2    18    19   ar
     3    19    20   ar
     4    20    21   ar
     5    21    16    1
     6    16     1    1
     7     1     2   ar
     8     2     3   ar
     9     3     6    1
    10     6     8    1
    11     8     9    1
    12     9    10    1
    13    10    11    1
    14    11    12    1
    15    12    13    1
    16    13    14    1
    17    14    15    1
    18     3     4   ar
    19     4     5   ar
    20    21    22   ar
    21    22    23   ar
    22    23    18   ar
    23     5     1   ar
    24    15    10    1
    25     6     7    1
@<TRIPOS>MOLECULE
*****
 23 25 0 0 0
SMALL
GASTEIGER

@<TRIPOS>ATOM
      1 N         138.8337  143.8940  162.4209 N.ar    1  UNL1       -0.2244
      2 C         140.2971  143.5729  162.3488 C.ar    1  UNL1        0.1329
      3 C         141.0322  144.8346  162.0056 C.ar    1  UNL1        0.1709
      4 N         140.0231  145.9356  161.8656 N.ar    1  UNL1       -0.1138
      5 N         138.6643  145.3543  162.1222 N.ar    1  UNL1       -0.0622
      6 N         142.5159  144.9714  161.8327 N.pl3   1  UNL1       -0.3142
      7 H         142.8826  145.3314  160.9929 H       1  UNL1        0.1483
      8 C         143.4410  144.5597  162.9393 C.3     1  UNL1        0.1058
      9 C         144.4020  143.4269  162.7312 C.3     1  UNL1        0.0936
     10 N         144.2270  142.1457  163.4913 N.3     1  UNL1       -0.2712
     11 C         142.9582  141.8910  164.2499 C.3     1  UNL1        0.0721
     12 C         142.7832  140.6097  165.0100 C.3     1  UNL1        0.0174
     13 C         143.8769  139.5831  165.0114 C.3     1  UNL1        0.0029
     14 C         145.1456  139.8378  164.2528 C.3     1  UNL1        0.0174
     15 C         145.3206  141.1191  163.4927 C.3     1  UNL1        0.0721
     16 C         137.7329  142.9251  162.7363 C.3     1  UNL1        0.1556
     17 F         139.0182  137.6543  165.2988 F       1  UNL1       -0.2042
     18 C         138.6969  138.9720  164.6582 C.ar    1  UNL1        0.1401
     19 C         138.4533  139.0478  163.1800 C.ar    1  UNL1        0.0294
     20 C         138.1319  140.3655  162.5394 C.ar    1  UNL1       -0.0000
     21 C         138.0542  141.6074  163.3769 C.ar    1  UNL1        0.0023
     22 C         138.2978  141.5317  164.8550 C.ar    1  UNL1       -0.0000
     23 C         138.6192  140.2140  165.4956 C.ar    1  UNL1        0.0294
@<TRIPOS>BOND
     1    17    18    1
     2    18    19   ar
     3    19    20   ar
     4    20    21   ar
     5    21    16    1
     6    16     1    1
     7     1     2   ar
     8     2     3   ar
     9     3     6    1
    10     6     8    1
    11     8     9    1
    12     9    10    1
    13    10    11    1
    14    11    12    1
    15    12    13    1
    16    13    14    1
    17    14    15    1
    18     3     4   ar
    19     4     5   ar
    20    21    22   ar
    21    22    23   ar
    22    23    18   ar
    23     5     1   ar
    24    15    10    1
    25     6     7    1
@<TRIPOS>MOLECULE
*****
 23 25 0 0 0
SMALL
GASTEIGER

@<TRIPOS>ATOM
      1 N         143.8073  141.8330  164.0578 N.ar    1  UNL1       -0.2244
      2 C         143.5198  140.5075  163.4171 C.ar    1  UNL1        0.1329
      3 C         144.4386  140.3517  162.2417 C.ar    1  UNL1        0.1709
      4 N         145.2940  141.5809  162.1559 N.ar    1  UNL1       -0.1138
      5 N         144.9039  142.4964  163.2782 N.ar    1  UNL1       -0.0622
      6 N         144.4926  139.1735  161.3148 N.pl3   1  UNL1       -0.3142
      7 H         145.0353  139.2169  160.4946 H       1  UNL1        0.1483
      8 C         143.7196  137.9293  161.6377 C.3     1  UNL1        0.1058
      9 C         142.2852  137.8069  161.2162 C.3     1  UNL1        0.0936
     10 N         141.1990  137.7842  162.2504 N.3     1  UNL1       -0.2712
     11 C         141.5384  137.5290  163.6891 C.3     1  UNL1        0.0721
     12 C         140.4521  137.5062  164.7233 C.3     1  UNL1        0.0174
     13 C         139.0265  137.7386  164.3188 C.3     1  UNL1        0.0029
     14 C         138.6871  137.9938  162.8802 C.3     1  UNL1        0.0174
     15 C         139.7734  138.0165  161.8460 C.3     1  UNL1        0.0721
     16 C         143.1192  142.3962  165.2658 C.3     1  UNL1        0.1556
     17 F         138.5943  139.3913  167.8144 F       1  UNL1       -0.2042
     18 C         139.7255  140.1425  167.1772 C.ar    1  UNL1        0.1401
     19 C         139.4536  141.0923  166.0485 C.ar    1  UNL1        0.0294
     20 C         140.5848  141.8435  165.4113 C.ar    1  UNL1       -0.0000
     21 C         141.9880  141.6450  165.9029 C.ar    1  UNL1        0.0023
     22 C         142.2599  140.6952  167.0316 C.ar    1  UNL1       -0.0000
     23 C         141.1287  139.9440  167.6688 C.ar    1  UNL1        0.0294
@<TRIPOS>BOND
     1    17    18    1
     2    18    19   ar
     3    19    20   ar
     4    20    21   ar
     5    21    16    1
     6    16     1    1
     7     1     2   ar
     8     2     3   ar
     9     3     6    1
    10     6     8    1
    11     8     9    1
    12     9    10    1
    13    10    11    1
    14    11    12    1
    15    12    13    1
    16    13    14    1
    17    14    15    1
    18     3     4   ar
    19     4     5   ar
    20    21    22   ar
    21    22    23   ar
    22    23    18   ar
    23     5     1   ar
    24    15    10    1
    25     6     7    1
@<TRIPOS>MOLECULE
*****
 23 25 0 0 0
SMALL
GASTEIGER

@<TRIPOS>ATOM
      1 N         142.7767  142.4255  164.0470 N.ar    1  UNL1       -0.2244
      2 C         142.2368  142.8351  162.7089 C.ar    1  UNL1        0.1329
      3 C         142.5479  144.2889  162.5087 C.ar    1  UNL1        0.1709
      4 N         143.2801  144.7777  163.7233 N.ar    1  UNL1       -0.1138
      5 N         143.4216  143.6261  164.6739 N.ar    1  UNL1       -0.0622
      6 N         142.1897  145.1097  161.3054 N.pl3   1  UNL1       -0.3142
      7 H         142.8944  145.5751  160.7995 H       1  UNL1        0.1483
      8 C         140.7578  145.2214  160.8730 C.3     1  UNL1        0.1058
      9 C         139.7101  145.6581  161.8536 C.3     1  UNL1        0.0936
     10 N         139.0715  144.6532  162.7661 N.3     1  UNL1       -0.2712
     11 C         139.2735  144.7521  164.2492 C.3     1  UNL1        0.0721
     12 C         138.6349  143.7473  165.1617 C.3     1  UNL1        0.0174
     13 C         137.7943  142.6436  164.5911 C.3     1  UNL1        0.0029
     14 C         137.5924  142.5449  163.1080 C.3     1  UNL1        0.0174
     15 C         138.2309  143.5497  162.1955 C.3     1  UNL1        0.0721
     16 C         142.6876  141.0559  164.6521 C.3     1  UNL1        0.1556
     17 F         137.4223  139.0040  166.6687 F       1  UNL1       -0.2042
     18 C         138.7386  139.5169  166.1645 C.ar    1  UNL1        0.1401
     19 C         139.2194  139.1321  164.7968 C.ar    1  UNL1        0.0294
     20 C         140.5357  139.6450  164.2927 C.ar    1  UNL1       -0.0000
     21 C         141.3712  140.5429  165.1562 C.ar    1  UNL1        0.0023
     22 C         140.8904  140.9277  166.5239 C.ar    1  UNL1       -0.0000
     23 C         139.5741  140.4148  167.0281 C.ar    1  UNL1        0.0294
@<TRIPOS>BOND
     1    17    18    1
     2    18    19   ar
     3    19    20   ar
     4    20    21   ar
     5    21    16    1
     6    16     1    1
     7     1     2   ar
     8     2     3   ar
     9     3     6    1
    10     6     8    1
    11     8     9    1
    12     9    10    1
    13    10    11    1
    14    11    12    1
    15    12    13    1
    16    13    14    1
    17    14    15    1
    18     3     4   ar
    19     4     5   ar
    20    21    22   ar
    21    22    23   ar
    22    23    18   ar
    23     5     1   ar
    24    15    10    1
    25     6     7    1
@<TRIPOS>MOLECULE
*****
 23 25 0 0 0
SMALL
GASTEIGER

@<TRIPOS>ATOM
      1 N         139.3467  143.4063  163.0759 N.ar    1  UNL1       -0.2244
      2 C         138.9039  141.9777  163.1914 C.ar    1  UNL1        0.1329
      3 C         137.9405  141.6993  162.0758 C.ar    1  UNL1        0.1709
      4 N         137.7878  142.9559  161.2708 N.ar    1  UNL1       -0.1138
      5 N         138.6569  144.0108  161.8889 N.ar    1  UNL1       -0.0622
      6 N         137.2508  140.3938  161.8116 N.pl3   1  UNL1       -0.3142
      7 H         136.2768  140.3181  161.9333 H       1  UNL1        0.1483
      8 C         138.0452  139.2035  161.3621 C.3     1  UNL1        0.1058
      9 C         138.3498  138.0969  162.3278 C.3     1  UNL1        0.0936
     10 N         139.3981  138.2900  163.3833 N.3     1  UNL1       -0.2712
     11 C         139.0242  138.8730  164.7139 C.3     1  UNL1        0.0721
     12 C         140.0724  139.0660  165.7694 C.3     1  UNL1        0.0174
     13 C         141.4945  138.6761  165.4942 C.3     1  UNL1        0.0029
     14 C         141.8684  138.0932  164.1636 C.3     1  UNL1        0.0174
     15 C         140.8201  137.9001  163.1082 C.3     1  UNL1        0.0721
     16 C         140.3100  144.1072  163.9872 C.3     1  UNL1        0.1556
     17 F         143.0200  141.0707  168.3958 F       1  UNL1       -0.2042
     18 C         142.3425  141.8298  167.2936 C.ar    1  UNL1        0.1401
     19 C         140.9381  142.3238  167.4765 C.ar    1  UNL1        0.0294
     20 C         140.2606  143.0829  166.3743 C.ar    1  UNL1       -0.0000
     21 C         140.9875  143.3481  165.0894 C.ar    1  UNL1        0.0023
     22 C         142.3920  142.8542  164.9065 C.ar    1  UNL1       -0.0000
     23 C         143.0695  142.0950  166.0087 C.ar    1  UNL1        0.0294
@<TRIPOS>BOND
     1    17    18    1
     2    18    19   ar
     3    19    20   ar
     4    20    21   ar
     5    21    16    1
     6    16     1    1
     7     1     2   ar
     8     2     3   ar
     9     3     6    1
    10     6     8    1
    11     8     9    1
    12     9    10    1
    13    10    11    1
    14    11    12    1
    15    12    13    1
    16    13    14    1
    17    14    15    1
    18     3     4   ar
    19     4     5   ar
    20    21    22   ar
    21    22    23   ar
    22    23    18   ar
    23     5     1   ar
    24    15    10    1
    25     6     7    1
