@<TRIPOS>MOLECULE
*****
 27 31 0 0 0
SMALL
GASTEIGER

@<TRIPOS>ATOM
      1 C         139.7436  145.2280  162.9938 C.3     1  UNL1        0.1123
      2 N         139.2737  143.8090  162.8684 N.am    1  UNL1       -0.2606
      3 C         138.4856  143.2390  161.7264 C.3     1  UNL1        0.1169
      4 C         138.2342  141.7887  162.0152 C.3     1  UNL1        0.1212
      5 N         138.8670  141.4624  163.3355 N.am    1  UNL1       -0.2413
      6 C         139.5094  142.7111  163.8628 C.2     1  UNL1        0.3111
      7 O         140.2563  142.8393  165.1572 O.2     1  UNL1       -0.2520
      8 C         138.8587  140.1227  164.0100 C.ar    1  UNL1        0.0562
      9 C         139.5410  138.9535  163.3640 C.ar    1  UNL1        0.0150
     10 C         139.5328  137.6137  164.0385 C.ar    1  UNL1        0.0021
     11 C         138.8422  137.4432  165.3591 C.ar    1  UNL1        0.0115
     12 C         138.1598  138.6123  166.0052 C.ar    1  UNL1        0.0589
     13 CL        137.4692  138.4418  167.3258 Cl      1  UNL1       -0.0822
     14 C         138.1681  139.9521  165.3307 C.ar    1  UNL1        0.0263
     15 C         141.1729  145.5737  162.6977 C.3     1  UNL1        0.0939
     16 C         143.3751  144.3571  164.5288 C.3     1  UNL1        0.0000
     17 C         143.8838  143.4503  163.4477 C.3     1  UNL1        0.0013
     18 C         142.7402  144.4050  163.2728 C.3     1  UNL1        0.0000
     19 C         144.9810  142.7895  164.2284 C.3     1  UNL1        0.0014
     20 C         145.6619  141.8027  163.3269 C.3     1  UNL1        0.0001
     21 C         144.9856  141.8537  161.9890 C.3     1  UNL1        0.0013
     22 C         143.8867  142.8720  162.0637 C.3     1  UNL1        0.0148
     23 C         143.2103  142.9230  160.7258 C.3     1  UNL1        0.0186
     24 C         142.1114  143.9413  160.8004 C.3     1  UNL1        0.0721
     25 N         142.1086  144.5196  162.1845 N.3     1  UNL1       -0.2725
     26 C         143.2057  143.8587  162.9652 C.3     1  UNL1        0.0575
     27 C         143.8821  143.8077  164.3031 C.3     1  UNL1        0.0160
@<TRIPOS>BOND
     1    16    17    1
     2    17    18    1
     3    17    19    1
     4    19    20    1
     5    20    21    1
     6    22    21    1
     7    22    23    1
     8    23    24    1
     9    24    25    1
    10    25    15    1
    11    15     1    1
    12     1     2    1
    13     2     3    1
    14     3     4    1
    15     4     5    1
    16     5     8    1
    17     8     9   ar
    18     9    10   ar
    19    10    11   ar
    20    11    12   ar
    21    12    13    1
    22    12    14   ar
    23     5     6   am
    24     6     7    2
    25    25    26    1
    26    26    27    1
    27    22    17    1
    28     6     2   am
    29    27    19    1
    30    26    22    1
    31    14     8   ar
@<TRIPOS>MOLECULE
*****
 27 31 0 0 0
SMALL
GASTEIGER

@<TRIPOS>ATOM
      1 C         144.4028  139.4790  163.5429 C.3     1  UNL1        0.1123
      2 N         144.1698  140.9230  163.2105 N.am    1  UNL1       -0.2606
      3 C         145.1979  142.0144  163.2527 C.3     1  UNL1        0.1169
      4 C         144.5312  143.2951  162.8458 C.3     1  UNL1        0.1212
      5 N         143.0911  142.9951  162.5523 N.am    1  UNL1       -0.2413
      6 C         142.8678  141.5290  162.7777 C.2     1  UNL1        0.3111
      7 O         141.5702  140.7975  162.6012 O.2     1  UNL1       -0.2520
      8 C         142.0562  143.9870  162.1108 C.ar    1  UNL1        0.0562
      9 C         141.2623  144.7471  163.1315 C.ar    1  UNL1        0.0150
     10 C         140.2273  145.7391  162.6902 C.ar    1  UNL1        0.0021
     11 C         139.9862  145.9709  161.2280 C.ar    1  UNL1        0.0115
     12 C         140.7801  145.2108  160.2071 C.ar    1  UNL1        0.0589
     13 CL        140.5390  145.4427  158.7449 Cl      1  UNL1       -0.0822
     14 C         141.8151  144.2189  160.6485 C.ar    1  UNL1        0.0263
     15 C         144.0393  138.9537  164.9002 C.3     1  UNL1        0.0939
     16 C         141.4008  137.3850  164.3892 C.3     1  UNL1        0.0000
     17 C         140.5990  138.2889  165.2779 C.3     1  UNL1        0.0013
     18 C         142.0684  138.4502  165.0238 C.3     1  UNL1        0.0000
     19 C         139.2676  137.6182  165.1114 C.3     1  UNL1        0.0014
     20 C         138.2641  138.3687  165.9358 C.3     1  UNL1        0.0001
     21 C         138.9752  139.5034  166.6118 C.3     1  UNL1        0.0013
     22 C         140.4182  139.4540  166.2052 C.3     1  UNL1        0.0148
     23 C         141.1293  140.5887  166.8811 C.3     1  UNL1        0.0186
     24 C         142.5723  140.5394  166.4746 C.3     1  UNL1        0.0721
     25 N         142.7530  139.3742  165.5473 N.3     1  UNL1       -0.2725
     26 C         141.4217  138.7035  165.3808 C.3     1  UNL1        0.0575
     27 C         140.7106  137.5688  164.7048 C.3     1  UNL1        0.0160
@<TRIPOS>BOND
     1    16    17    1
     2    17    18    1
     3    17    19    1
     4    19    20    1
     5    20    21    1
     6    22    21    1
     7    22    23    1
     8    23    24    1
     9    24    25    1
    10    25    15    1
    11    15     1    1
    12     1     2    1
    13     2     3    1
    14     3     4    1
    15     4     5    1
    16     5     8    1
    17     8     9   ar
    18     9    10   ar
    19    10    11   ar
    20    11    12   ar
    21    12    13    1
    22    12    14   ar
    23     5     6   am
    24     6     7    2
    25    25    26    1
    26    26    27    1
    27    22    17    1
    28     6     2   am
    29    27    19    1
    30    26    22    1
    31    14     8   ar
@<TRIPOS>MOLECULE
*****
 27 31 0 0 0
SMALL
GASTEIGER

@<TRIPOS>ATOM
      1 C         137.8405  143.7578  163.6472 C.3     1  UNL1        0.1123
      2 N         138.3182  142.5081  164.3254 N.am    1  UNL1       -0.2606
      3 C         137.9314  141.1051  163.9623 C.3     1  UNL1        0.1169
      4 C         138.6407  140.1719  164.8983 C.3     1  UNL1        0.1212
      5 N         139.4658  140.9982  165.8398 N.am    1  UNL1       -0.2413
      6 C         139.2665  142.4421  165.4857 C.2     1  UNL1        0.3111
      7 O         139.9036  143.6141  166.1716 O.2     1  UNL1       -0.2520
      8 C         140.3372  140.4728  166.9419 C.ar    1  UNL1        0.0562
      9 C         141.7022  139.9360  166.6275 C.ar    1  UNL1        0.0150
     10 C         142.5736  139.4106  167.7295 C.ar    1  UNL1        0.0021
     11 C         142.0802  139.4219  169.1460 C.ar    1  UNL1        0.0115
     12 C         140.7152  139.9587  169.4604 C.ar    1  UNL1        0.0589
     13 CL        140.2217  139.9700  170.8769 Cl      1  UNL1       -0.0822
     14 C         139.8437  140.4841  168.3584 C.ar    1  UNL1        0.0263
     15 C         138.7646  144.5221  162.7460 C.3     1  UNL1        0.0939
     16 C         141.5676  145.4893  163.6898 C.3     1  UNL1        0.0000
     17 C         142.2872  144.4809  162.8442 C.3     1  UNL1        0.0013
     18 C         140.7944  144.6142  162.9028 C.3     1  UNL1        0.0000
     19 C         143.6900  144.8550  163.2214 C.3     1  UNL1        0.0014
     20 C         144.6271  143.9520  162.4754 C.3     1  UNL1        0.0001
     21 C         143.8034  143.0198  161.6371 C.3     1  UNL1        0.0013
     22 C         142.3573  143.3467  161.8651 C.3     1  UNL1        0.0148
     23 C         141.5337  142.4145  161.0269 C.3     1  UNL1        0.0186
     24 C         140.0875  142.7413  161.2548 C.3     1  UNL1        0.0721
     25 N         140.0175  143.8756  162.2340 N.3     1  UNL1       -0.2725
     26 C         141.4202  144.2496  162.6111 C.3     1  UNL1        0.0575
     27 C         142.2439  145.1818  163.4493 C.3     1  UNL1        0.0160
@<TRIPOS>BOND
     1    16    17    1
     2    17    18    1
     3    17    19    1
     4    19    20    1
     5    20    21    1
     6    22    21    1
     7    22    23    1
     8    23    24    1
     9    24    25    1
    10    25    15    1
    11    15     1    1
    12     1     2    1
    13     2     3    1
    14     3     4    1
    15     4     5    1
    16     5     8    1
    17     8     9   ar
    18     9    10   ar
    19    10    11   ar
    20    11    12   ar
    21    12    13    1
    22    12    14   ar
    23     5     6   am
    24     6     7    2
    25    25    26    1
    26    26    27    1
    27    22    17    1
    28     6     2   am
    29    27    19    1
    30    26    22    1
    31    14     8   ar
@<TRIPOS>MOLECULE
*****
 27 31 0 0 0
SMALL
GASTEIGER

@<TRIPOS>ATOM
      1 C         145.6108  141.5485  163.5692 C.3     1  UNL1        0.1123
      2 N         144.6267  140.7243  164.3454 N.am    1  UNL1       -0.2606
      3 C         144.3398  139.2667  164.1376 C.3     1  UNL1        0.1169
      4 C         143.2925  138.8546  165.1293 C.3     1  UNL1        0.1212
      5 N         142.9323  140.0575  165.9500 N.am    1  UNL1       -0.2413
      6 C         143.7569  141.2130  165.4654 C.2     1  UNL1        0.3111
      7 O         143.7184  142.6116  166.0061 O.2     1  UNL1       -0.2520
      8 C         141.9245  140.0976  167.0602 C.ar    1  UNL1        0.0562
      9 C         140.4696  139.8900  166.7602 C.ar    1  UNL1        0.0150
     10 C         139.4617  139.9302  167.8704 C.ar    1  UNL1        0.0021
     11 C         139.9087  140.1780  169.2806 C.ar    1  UNL1        0.0115
     12 C         141.3637  140.3857  169.5806 C.ar    1  UNL1        0.0589
     13 CL        141.8108  140.6335  170.9908 Cl      1  UNL1       -0.0822
     14 C         142.3716  140.3455  168.4705 C.ar    1  UNL1        0.0263
     15 C         145.1618  142.3059  162.3548 C.3     1  UNL1        0.0939
     16 C         143.6759  144.8355  163.3922 C.3     1  UNL1        0.0000
     17 C         142.3631  144.3982  162.8133 C.3     1  UNL1        0.0013
     18 C         143.6350  143.6117  162.6969 C.3     1  UNL1        0.0000
     19 C         141.5381  145.5691  163.2586 C.3     1  UNL1        0.0014
     20 C         140.1326  145.3543  162.7806 C.3     1  UNL1        0.0001
     21 C         140.0890  144.0507  162.0399 C.3     1  UNL1        0.0013
     22 C         141.4675  143.4598  162.0602 C.3     1  UNL1        0.0148
     23 C         141.4239  142.1561  161.3195 C.3     1  UNL1        0.0186
     24 C         142.8025  141.5651  161.3397 C.3     1  UNL1        0.0721
     25 N         143.6981  142.5036  162.0929 N.3     1  UNL1       -0.2725
     26 C         142.8730  143.6745  162.5381 C.3     1  UNL1        0.0575
     27 C         142.9166  144.9782  163.2788 C.3     1  UNL1        0.0160
@<TRIPOS>BOND
     1    16    17    1
     2    17    18    1
     3    17    19    1
     4    19    20    1
     5    20    21    1
     6    22    21    1
     7    22    23    1
     8    23    24    1
     9    24    25    1
    10    25    15    1
    11    15     1    1
    12     1     2    1
    13     2     3    1
    14     3     4    1
    15     4     5    1
    16     5     8    1
    17     8     9   ar
    18     9    10   ar
    19    10    11   ar
    20    11    12   ar
    21    12    13    1
    22    12    14   ar
    23     5     6   am
    24     6     7    2
    25    25    26    1
    26    26    27    1
    27    22    17    1
    28     6     2   am
    29    27    19    1
    30    26    22    1
    31    14     8   ar
@<TRIPOS>MOLECULE
*****
 27 31 0 0 0
SMALL
GASTEIGER

@<TRIPOS>ATOM
      1 C         138.4936  139.2510  163.5703 C.3     1  UNL1        0.1123
      2 N         138.8054  139.5263  165.0114 N.am    1  UNL1       -0.2606
      3 C         138.1179  138.9129  166.1951 C.3     1  UNL1        0.1169
      4 C         138.7471  139.4710  167.4371 C.3     1  UNL1        0.1212
      5 N         139.8235  140.4292  167.0211 N.am    1  UNL1       -0.2413
      6 C         139.8595  140.4635  165.5219 C.2     1  UNL1        0.3111
      7 O         140.7869  141.2898  164.6809 O.2     1  UNL1       -0.2520
      8 C         140.7084  141.2153  167.9424 C.ar    1  UNL1        0.0562
      9 C         142.1110  140.7550  168.2090 C.ar    1  UNL1        0.0150
     10 C         142.9960  141.5410  169.1304 C.ar    1  UNL1        0.0021
     11 C         142.4784  142.7873  169.7853 C.ar    1  UNL1        0.0115
     12 C         141.0759  143.2476  169.5188 C.ar    1  UNL1        0.0589
     13 CL        140.5583  144.4939  170.1736 Cl      1  UNL1       -0.0822
     14 C         140.1909  142.4616  168.5974 C.ar    1  UNL1        0.0263
     15 C         137.7831  140.2835  162.7461 C.3     1  UNL1        0.0939
     16 C         137.7462  143.2641  163.6391 C.3     1  UNL1        0.0000
     17 C         138.6731  143.6872  162.5383 C.3     1  UNL1        0.0013
     18 C         138.2096  142.2763  162.7489 C.3     1  UNL1        0.0000
     19 C         138.7365  145.1489  162.8688 C.3     1  UNL1        0.0014
     20 C         139.6379  145.8115  161.8695 C.3     1  UNL1        0.0001
     21 C         140.1315  144.7592  160.9214 C.3     1  UNL1        0.0013
     22 C         139.5353  143.4463  161.3347 C.3     1  UNL1        0.0148
     23 C         140.0289  142.3940  160.3865 C.3     1  UNL1        0.0186
     24 C         139.4326  141.0811  160.7998 C.3     1  UNL1        0.0721
     25 N         138.5704  141.3220  162.0034 N.3     1  UNL1       -0.2725
     26 C         138.6339  142.7837  162.3340 C.3     1  UNL1        0.0575
     27 C         138.1403  143.8360  163.2821 C.3     1  UNL1        0.0160
@<TRIPOS>BOND
     1    16    17    1
     2    17    18    1
     3    17    19    1
     4    19    20    1
     5    20    21    1
     6    22    21    1
     7    22    23    1
     8    23    24    1
     9    24    25    1
    10    25    15    1
    11    15     1    1
    12     1     2    1
    13     2     3    1
    14     3     4    1
    15     4     5    1
    16     5     8    1
    17     8     9   ar
    18     9    10   ar
    19    10    11   ar
    20    11    12   ar
    21    12    13    1
    22    12    14   ar
    23     5     6   am
    24     6     7    2
    25    25    26    1
    26    26    27    1
    27    22    17    1
    28     6     2   am
    29    27    19    1
    30    26    22    1
    31    14     8   ar
@<TRIPOS>MOLECULE
*****
 27 31 0 0 0
SMALL
GASTEIGER

@<TRIPOS>ATOM
      1 C         141.1527  137.3462  163.2660 C.3     1  UNL1        0.1123
      2 N         140.3237  138.1392  164.2325 N.am    1  UNL1       -0.2606
      3 C         138.8786  138.5035  164.0624 C.3     1  UNL1        0.1169
      4 C         138.4562  139.2965  165.2635 C.3     1  UNL1        0.1212
      5 N         139.6401  139.4222  166.1759 N.am    1  UNL1       -0.2413
      6 C         140.7944  138.7069  165.5387 C.2     1  UNL1        0.3111
      7 O         142.1765  138.5814  166.1078 O.2     1  UNL1       -0.2520
      8 C         139.6653  140.1376  167.4940 C.ar    1  UNL1        0.0562
      9 C         138.7566  139.6979  168.6035 C.ar    1  UNL1        0.0150
     10 C         138.7818  140.4133  169.9217 C.ar    1  UNL1        0.0021
     11 C         139.7157  141.5683  170.1304 C.ar    1  UNL1        0.0115
     12 C         140.6245  142.0081  169.0210 C.ar    1  UNL1        0.0589
     13 CL        141.5584  143.1631  169.2297 Cl      1  UNL1       -0.0822
     14 C         140.5993  141.2927  167.7028 C.ar    1  UNL1        0.0263
     15 C         142.1726  138.0370  162.4101 C.3     1  UNL1        0.0939
     16 C         144.7176  139.2359  163.7400 C.3     1  UNL1        0.0000
     17 C         144.2656  140.6483  163.5150 C.3     1  UNL1        0.0013
     18 C         143.4805  139.4399  163.0989 C.3     1  UNL1        0.0000
     19 C         145.4425  141.3450  164.1310 C.3     1  UNL1        0.0014
     20 C         145.2147  142.8236  164.0229 C.3     1  UNL1        0.0001
     21 C         143.8970  143.0409  163.3401 C.3     1  UNL1        0.0013
     22 C         143.3104  141.6965  163.0262 C.3     1  UNL1        0.0148
     23 C         141.9926  141.9137  162.3433 C.3     1  UNL1        0.0186
     24 C         141.4059  140.5693  162.0294 C.3     1  UNL1        0.0721
     25 N         142.3612  139.5212  162.5183 N.3     1  UNL1       -0.2725
     26 C         143.5382  140.2178  163.1343 C.3     1  UNL1        0.0575
     27 C         144.8560  140.0005  163.8171 C.3     1  UNL1        0.0160
@<TRIPOS>BOND
     1    16    17    1
     2    17    18    1
     3    17    19    1
     4    19    20    1
     5    20    21    1
     6    22    21    1
     7    22    23    1
     8    23    24    1
     9    24    25    1
    10    25    15    1
    11    15     1    1
    12     1     2    1
    13     2     3    1
    14     3     4    1
    15     4     5    1
    16     5     8    1
    17     8     9   ar
    18     9    10   ar
    19    10    11   ar
    20    11    12   ar
    21    12    13    1
    22    12    14   ar
    23     5     6   am
    24     6     7    2
    25    25    26    1
    26    26    27    1
    27    22    17    1
    28     6     2   am
    29    27    19    1
    30    26    22    1
    31    14     8   ar
@<TRIPOS>MOLECULE
*****
 27 31 0 0 0
SMALL
GASTEIGER

@<TRIPOS>ATOM
      1 C         142.9475  142.1193  167.3451 C.3     1  UNL1        0.1123
      2 N         143.1001  142.8139  166.0244 N.am    1  UNL1       -0.2606
      3 C         144.3931  143.2524  165.4031 C.3     1  UNL1        0.1169
      4 C         144.0785  143.9014  164.0878 C.3     1  UNL1        0.1212
      5 N         142.5913  143.8640  163.8963 N.am    1  UNL1       -0.2413
      6 C         141.9866  143.1918  165.0932 C.2     1  UNL1        0.3111
      7 O         140.5250  142.9415  165.3191 O.2     1  UNL1       -0.2520
      8 C         141.8406  144.4039  162.7153 C.ar    1  UNL1        0.0562
      9 C         140.7637  145.4286  162.9157 C.ar    1  UNL1        0.0150
     10 C         140.0129  145.9686  161.7347 C.ar    1  UNL1        0.0021
     11 C         140.3391  145.4838  160.3532 C.ar    1  UNL1        0.0115
     12 C         141.4160  144.4591  160.1527 C.ar    1  UNL1        0.0589
     13 CL        141.7422  143.9743  158.7712 Cl      1  UNL1       -0.0822
     14 C         142.1668  143.9191  161.3337 C.ar    1  UNL1        0.0263
     15 C         142.7171  140.6377  167.3911 C.3     1  UNL1        0.0939
     16 C         142.6334  138.6552  164.9941 C.3     1  UNL1        0.0000
     17 C         141.1420  138.5118  165.0631 C.3     1  UNL1        0.0013
     18 C         141.9450  139.3790  165.9866 C.3     1  UNL1        0.0000
     19 C         140.9715  137.5516  163.9234 C.3     1  UNL1        0.0014
     20 C         139.5091  137.2456  163.7899 C.3     1  UNL1        0.0001
     21 C         138.7758  138.0166  164.8471 C.3     1  UNL1        0.0013
     22 C         139.7849  138.7992  165.6340 C.3     1  UNL1        0.0148
     23 C         139.0516  139.5703  166.6911 C.3     1  UNL1        0.0186
     24 C         140.0607  140.3529  167.4781 C.3     1  UNL1        0.0721
     25 N         141.4178  140.0654  166.9072 N.3     1  UNL1       -0.2725
     26 C         141.2473  139.1052  165.7675 C.3     1  UNL1        0.0575
     27 C         141.9806  138.3342  164.7103 C.3     1  UNL1        0.0160
@<TRIPOS>BOND
     1    16    17    1
     2    17    18    1
     3    17    19    1
     4    19    20    1
     5    20    21    1
     6    22    21    1
     7    22    23    1
     8    23    24    1
     9    24    25    1
    10    25    15    1
    11    15     1    1
    12     1     2    1
    13     2     3    1
    14     3     4    1
    15     4     5    1
    16     5     8    1
    17     8     9   ar
    18     9    10   ar
    19    10    11   ar
    20    11    12   ar
    21    12    13    1
    22    12    14   ar
    23     5     6   am
    24     6     7    2
    25    25    26    1
    26    26    27    1
    27    22    17    1
    28     6     2   am
    29    27    19    1
    30    26    22    1
    31    14     8   ar
@<TRIPOS>MOLECULE
*****
 27 31 0 0 0
SMALL
GASTEIGER

@<TRIPOS>ATOM
      1 C         141.1433  139.3407  162.1446 C.3     1  UNL1        0.1123
      2 N         141.7671  139.4916  163.5004 N.am    1  UNL1       -0.2606
      3 C         143.2182  139.7496  163.7794 C.3     1  UNL1        0.1169
      4 C         143.3972  139.8285  165.2666 C.3     1  UNL1        0.1212
      5 N         142.0568  139.6192  165.9066 N.am    1  UNL1       -0.2413
      6 C         141.0494  139.4110  164.8150 C.2     1  UNL1        0.3111
      7 O         139.5818  139.1653  165.0047 O.2     1  UNL1       -0.2520
      8 C         141.7736  139.6182  167.3796 C.ar    1  UNL1        0.0562
      9 C         142.8057  139.1086  168.3414 C.ar    1  UNL1        0.0150
     10 C         142.5226  139.1076  169.8145 C.ar    1  UNL1        0.0021
     11 C         141.2074  139.6163  170.3257 C.ar    1  UNL1        0.0115
     12 C         140.1753  140.1260  169.3640 C.ar    1  UNL1        0.0589
     13 CL        138.8601  140.6346  169.8752 Cl      1  UNL1       -0.0822
     14 C         140.4584  140.1269  167.8909 C.ar    1  UNL1        0.0263
     15 C         140.4333  140.5010  161.5123 C.3     1  UNL1        0.0939
     16 C         141.2273  143.0297  163.1428 C.3     1  UNL1        0.0000
     17 C         139.8245  143.2573  163.6224 C.3     1  UNL1        0.0013
     18 C         140.2306  142.1281  162.7226 C.3     1  UNL1        0.0000
     19 C         140.0813  144.4859  164.4437 C.3     1  UNL1        0.0014
     20 C         138.7790  144.9199  165.0483 C.3     1  UNL1        0.0001
     21 C         137.7172  143.9596  164.6007 C.3     1  UNL1        0.0013
     22 C         138.3634  142.9320  163.7194 C.3     1  UNL1        0.0148
     23 C         137.3017  141.9717  163.2718 C.3     1  UNL1        0.0186
     24 C         137.9478  140.9440  162.3905 C.3     1  UNL1        0.0721
     25 N         139.4089  141.2694  162.2935 N.3     1  UNL1       -0.2725
     26 C         139.6657  142.4980  163.1148 C.3     1  UNL1        0.0575
     27 C         140.7275  143.4584  163.5625 C.3     1  UNL1        0.0160
@<TRIPOS>BOND
     1    16    17    1
     2    17    18    1
     3    17    19    1
     4    19    20    1
     5    20    21    1
     6    22    21    1
     7    22    23    1
     8    23    24    1
     9    24    25    1
    10    25    15    1
    11    15     1    1
    12     1     2    1
    13     2     3    1
    14     3     4    1
    15     4     5    1
    16     5     8    1
    17     8     9   ar
    18     9    10   ar
    19    10    11   ar
    20    11    12   ar
    21    12    13    1
    22    12    14   ar
    23     5     6   am
    24     6     7    2
    25    25    26    1
    26    26    27    1
    27    22    17    1
    28     6     2   am
    29    27    19    1
    30    26    22    1
    31    14     8   ar
@<TRIPOS>MOLECULE
*****
 27 31 0 0 0
SMALL
GASTEIGER

@<TRIPOS>ATOM
      1 C         138.1725  139.4885  162.4584 C.3     1  UNL1        0.1123
      2 N         139.4752  139.6045  163.1929 N.am    1  UNL1       -0.2606
      3 C         140.8230  139.2112  162.6650 C.3     1  UNL1        0.1169
      4 C         141.8396  139.4978  163.7302 C.3     1  UNL1        0.1212
      5 N         141.1200  140.0683  164.9162 N.am    1  UNL1       -0.2413
      6 C         139.6587  140.1342  164.5842 C.2     1  UNL1        0.3111
      7 O         138.5718  140.6409  165.4852 O.2     1  UNL1       -0.2520
      8 C         141.7510  140.4974  166.2076 C.ar    1  UNL1        0.0562
      9 C         142.3474  141.8681  166.3318 C.ar    1  UNL1        0.0150
     10 C         142.9784  142.2973  167.6232 C.ar    1  UNL1        0.0021
     11 C         143.0130  141.3558  168.7904 C.ar    1  UNL1        0.0115
     12 C         142.4166  139.9851  168.6662 C.ar    1  UNL1        0.0589
     13 CL        142.4512  139.0436  169.8334 Cl      1  UNL1       -0.0822
     14 C         141.7856  139.5559  167.3748 C.ar    1  UNL1        0.0263
     15 C         137.5764  140.6939  161.7936 C.3     1  UNL1        0.0939
     16 C         137.7835  143.4625  163.1989 C.3     1  UNL1        0.0000
     17 C         138.7694  143.9855  162.1967 C.3     1  UNL1        0.0013
     18 C         138.1779  142.6079  162.1515 C.3     1  UNL1        0.0000
     19 C         138.9547  145.3546  162.7808 C.3     1  UNL1        0.0014
     20 C         139.9341  146.0969  161.9207 C.3     1  UNL1        0.0001
     21 C         140.3542  145.1865  160.8050 C.3     1  UNL1        0.0013
     22 C         139.6344  143.8816  160.9757 C.3     1  UNL1        0.0148
     23 C         140.0545  142.9712  159.8600 C.3     1  UNL1        0.0186
     24 C         139.3347  141.6662  160.0306 C.3     1  UNL1        0.0721
     25 N         138.4697  141.7701  161.2517 N.3     1  UNL1       -0.2725
     26 C         138.6550  143.1393  161.8358 C.3     1  UNL1        0.0575
     27 C         138.2349  144.0497  162.9514 C.3     1  UNL1        0.0160
@<TRIPOS>BOND
     1    16    17    1
     2    17    18    1
     3    17    19    1
     4    19    20    1
     5    20    21    1
     6    22    21    1
     7    22    23    1
     8    23    24    1
     9    24    25    1
    10    25    15    1
    11    15     1    1
    12     1     2    1
    13     2     3    1
    14     3     4    1
    15     4     5    1
    16     5     8    1
    17     8     9   ar
    18     9    10   ar
    19    10    11   ar
    20    11    12   ar
    21    12    13    1
    22    12    14   ar
    23     5     6   am
    24     6     7    2
    25    25    26    1
    26    26    27    1
    27    22    17    1
    28     6     2   am
    29    27    19    1
    30    26    22    1
    31    14     8   ar
