@<TRIPOS>MOLECULE
*****
 38 41 0 0 0
SMALL
GASTEIGER

@<TRIPOS>ATOM
      1 C         139.4103  140.0800  165.3613 C.ar    1  UNL1        0.0860
      2 C         140.4377  139.2790  164.6178 C.ar    1  UNL1        0.0250
      3 C         139.8430  138.8687  163.3032 C.ar    1  UNL1        0.0668
      4 C         140.3915  138.0673  162.1599 C.ar    1  UNL1        0.1333
      5 N         139.5452  137.8133  160.9479 N.ar    1  UNL1       -0.2108
      6 C         138.1504  138.3608  160.8790 C.ar    1  UNL1        0.1773
      7 N         137.6019  139.1622  162.0222 N.ar    1  UNL1       -0.3214
      8 C         138.4482  139.4161  163.2343 C.ar    1  UNL1        0.1443
      9 N         138.1808  140.1647  164.5063 N.ar    1  UNL1       -0.2283
     10 H         136.6864  139.5215  161.9770 H       1  UNL1        0.1689
     11 C         140.1909  142.0532  166.8604 C.ar    1  UNL1        0.1398
     12 C         140.3629  142.6625  168.2202 C.ar    1  UNL1        0.0340
     13 C         139.9262  141.9080  169.4408 C.ar    1  UNL1       -0.0034
     14 C         139.3175  140.5441  169.3016 C.ar    1  UNL1       -0.0027
     15 C         139.1455  139.9348  167.9418 C.ar    1  UNL1        0.0042
     16 C         139.5822  140.6893  166.7212 C.ar    1  UNL1        0.0516
     17 C         142.0574  142.7446  165.1906 C.3     1  UNL1        0.2525
     18 O         140.6276  142.8077  165.6397 O.3     1  UNL1       -0.4714
     19 C         140.0981  142.5173  170.8007 C.3     1  UNL1        0.0958
     20 N         141.2288  142.0768  171.6824 N.3     1  UNL1       -0.2926
     21 H         140.9224  142.2152  172.6454 H       1  UNL1        0.1236
     22 C         141.7481  140.6726  171.5908 C.3     1  UNL1        0.0864
     23 C         143.0284  140.3925  170.8611 C.3     1  UNL1        0.0895
     24 N         143.1749  140.7921  169.4228 N.3     1  UNL1       -0.2691
     25 C         143.6701  142.1639  169.0722 C.3     1  UNL1        0.0897
     26 C         142.8260  139.8200  168.3351 C.3     1  UNL1        0.0897
     27 N         141.7864  137.5198  162.2289 N.pl3   1  UNL1       -0.3139
     28 H         141.9678  136.6974  162.7387 H       1  UNL1        0.1485
     29 CA        142.9049  138.2256  161.5210 C.3     1  UNL1        0.1227
     30 C         143.7402  139.2321  162.2552 C.ar    1  UNL1       -0.0021
     31 C         144.1416  138.9788  163.6782 C.ar    1  UNL1       -0.0026
     32 C         144.9770  139.9853  164.4123 C.ar    1  UNL1       -0.0003
     33 C         145.4110  141.2452  163.7236 C.ar    1  UNL1       -0.0000
     34 C         145.0096  141.4986  162.3007 C.ar    1  UNL1       -0.0003
     35 C         144.1742  140.4920  161.5664 C.ar    1  UNL1       -0.0026
     36 C         143.1879  137.9247  160.0790 C.3     1  UNL1        0.1611
     37 O         142.0963  138.0514  159.0581 O.3     1  UNL1       -0.3799
     38 H         141.4125  137.3857  159.2316 H       1  UNL1        0.2105
@<TRIPOS>BOND
     1    17    18    1
     2    18    11    1
     3    11    12   ar
     4    12    13   ar
     5    13    19    1
     6    19    20    1
     7    20    22    1
     8    22    23    1
     9    23    24    1
    10    24    25    1
    11    24    26    1
    12    13    14   ar
    13    14    15   ar
    14    15    16   ar
    15    16     1    1
    16     1     2   ar
    17     2     3   ar
    18     3     4   ar
    19     4    27    1
    20    27    29    1
    21    29    36    1
    22    36    37    1
    23    29    30    1
    24    30    31   ar
    25    31    32   ar
    26    32    33   ar
    27    33    34   ar
    28    34    35   ar
    29     4     5   ar
    30     5     6   ar
    31     6     7   ar
    32     7     8   ar
    33     8     9   ar
    34    16    11   ar
    35     9     1   ar
    36     8     3    1
    37    35    30   ar
    38    20    21    1
    39    27    28    1
    40    37    38    1
    41     7    10    1
@<TRIPOS>MOLECULE
*****
 38 41 0 0 0
SMALL
GASTEIGER

@<TRIPOS>ATOM
      1 C         142.7267  139.8704  164.5613 C.ar    1  UNL1        0.0860
      2 C         141.6480  140.1647  163.5614 C.ar    1  UNL1        0.0250
      3 C         141.9119  139.3376  162.3381 C.ar    1  UNL1        0.0668
      4 C         141.1818  139.2138  161.0336 C.ar    1  UNL1        0.1333
      5 N         141.6935  138.2846  159.9730 N.ar    1  UNL1       -0.2108
      6 C         142.9351  137.4793  160.2169 C.ar    1  UNL1        0.1773
      7 N         143.6652  137.6031  161.5214 N.ar    1  UNL1       -0.3214
      8 C         143.1536  138.5322  162.5820 C.ar    1  UNL1        0.1443
      9 N         143.6571  138.8615  163.9560 N.ar    1  UNL1       -0.2283
     10 H         144.4802  137.0744  161.6815 H       1  UNL1        0.1689
     11 C         143.1626  141.9388  166.0719 C.ar    1  UNL1        0.1398
     12 C         143.2887  142.5467  167.4373 C.ar    1  UNL1        0.0340
     13 C         143.1050  141.6942  168.6577 C.ar    1  UNL1       -0.0034
     14 C         142.7952  140.2337  168.5126 C.ar    1  UNL1       -0.0027
     15 C         142.6691  139.6258  167.1472 C.ar    1  UNL1        0.0042
     16 C         142.8528  140.4783  165.9268 C.ar    1  UNL1        0.0516
     17 C         144.7045  142.9284  164.2298 C.3     1  UNL1        0.2525
     18 O         143.3463  142.7914  164.8514 O.3     1  UNL1       -0.4714
     19 C         143.2311  142.3021  170.0232 C.3     1  UNL1        0.0958
     20 N         142.2278  143.3153  170.4887 N.3     1  UNL1       -0.2926
     21 H         142.6412  144.2340  170.3288 H       1  UNL1        0.1236
     22 C         140.8563  143.3461  169.8822 C.3     1  UNL1        0.0864
     23 C         139.7800  142.4477  170.4156 C.3     1  UNL1        0.0895
     24 N         139.7993  140.9824  170.0959 N.3     1  UNL1       -0.2691
     25 C         140.2692  139.9965  171.1242 C.3     1  UNL1        0.0897
     26 C         139.3488  140.5028  168.7479 C.3     1  UNL1        0.0897
     27 N         139.9401  140.0192  160.7897 N.pl3   1  UNL1       -0.3139
     28 H         139.8348  140.5189  159.9480 H       1  UNL1        0.1485
     29 CA        138.8587  140.0632  161.8283 C.3     1  UNL1        0.1227
     30 C         138.5123  141.3610  162.4959 C.ar    1  UNL1       -0.0021
     31 C         138.0822  141.3739  163.9329 C.ar    1  UNL1       -0.0026
     32 C         137.7359  142.6717  164.6005 C.ar    1  UNL1       -0.0003
     33 C         137.8196  143.9567  163.8311 C.ar    1  UNL1       -0.0000
     34 C         138.2497  143.9438  162.3942 C.ar    1  UNL1       -0.0003
     35 C         138.5961  142.6460  161.7265 C.ar    1  UNL1       -0.0026
     36 C         138.1236  138.8094  162.1992 C.3     1  UNL1        0.1611
     37 O         138.3573  137.5461  161.4249 O.3     1  UNL1       -0.3799
     38 H         138.0365  137.6596  160.5166 H       1  UNL1        0.2105
@<TRIPOS>BOND
     1    17    18    1
     2    18    11    1
     3    11    12   ar
     4    12    13   ar
     5    13    19    1
     6    19    20    1
     7    20    22    1
     8    22    23    1
     9    23    24    1
    10    24    25    1
    11    24    26    1
    12    13    14   ar
    13    14    15   ar
    14    15    16   ar
    15    16     1    1
    16     1     2   ar
    17     2     3   ar
    18     3     4   ar
    19     4    27    1
    20    27    29    1
    21    29    36    1
    22    36    37    1
    23    29    30    1
    24    30    31   ar
    25    31    32   ar
    26    32    33   ar
    27    33    34   ar
    28    34    35   ar
    29     4     5   ar
    30     5     6   ar
    31     6     7   ar
    32     7     8   ar
    33     8     9   ar
    34    16    11   ar
    35     9     1   ar
    36     8     3    1
    37    35    30   ar
    38    20    21    1
    39    27    28    1
    40    37    38    1
    41     7    10    1
@<TRIPOS>MOLECULE
*****
 38 41 0 0 0
SMALL
GASTEIGER

@<TRIPOS>ATOM
      1 C         140.0798  138.5004  161.7712 C.ar    1  UNL1        0.0860
      2 C         139.4029  139.7106  162.3431 C.ar    1  UNL1        0.0250
      3 C         138.9030  139.3582  163.7128 C.ar    1  UNL1        0.0668
      4 C         138.1603  140.1532  164.7454 C.ar    1  UNL1        0.1333
      5 N         137.7855  139.5201  166.0526 N.ar    1  UNL1       -0.2108
      6 C         138.1534  138.0921  166.3271 C.ar    1  UNL1        0.1773
      7 N         138.8961  137.2972  165.2945 N.ar    1  UNL1       -0.3214
      8 C         139.2709  137.9302  163.9873 C.ar    1  UNL1        0.1443
      9 N         139.9982  137.4000  162.7873 N.ar    1  UNL1       -0.2283
     10 H         139.1376  136.3599  165.4747 H       1  UNL1        0.1689
     11 C         142.1920  138.1144  160.3084 C.ar    1  UNL1        0.1398
     12 C         142.8373  138.0208  158.9575 C.ar    1  UNL1        0.0340
     13 C         142.0156  138.2198  157.7185 C.ar    1  UNL1       -0.0034
     14 C         140.5486  138.5123  157.8303 C.ar    1  UNL1       -0.0027
     15 C         139.9034  138.6058  159.1812 C.ar    1  UNL1        0.0042
     16 C         140.7251  138.4068  160.4202 C.ar    1  UNL1        0.0516
     17 C         143.9050  139.0163  162.0411 C.3     1  UNL1        0.2525
     18 O         143.0137  137.9154  161.5475 O.3     1  UNL1       -0.4714
     19 C         142.6608  138.1263  156.3675 C.3     1  UNL1        0.0958
     20 N         143.8925  137.2907  156.1809 N.3     1  UNL1       -0.2926
     21 H         144.3495  137.2326  157.0909 H       1  UNL1        0.1236
     22 C         143.7755  135.8873  155.6646 C.3     1  UNL1        0.0864
     23 C         143.6485  134.7427  156.6258 C.3     1  UNL1        0.0895
     24 N         142.7348  133.5959  156.3099 N.3     1  UNL1       -0.2691
     25 C         141.5594  133.8017  155.4008 C.3     1  UNL1        0.0897
     26 C         142.9963  132.2431  156.9030 C.3     1  UNL1        0.0897
     27 N         137.7924  141.5812  164.4708 N.pl3   1  UNL1       -0.3139
     28 H         136.8853  141.8049  164.1603 H       1  UNL1        0.1485
     29 CA        138.8065  142.6685  164.6694 C.3     1  UNL1        0.1227
     30 C         140.1064  142.3657  165.3539 C.ar    1  UNL1       -0.0021
     31 C         140.1827  142.3648  166.8520 C.ar    1  UNL1       -0.0026
     32 C         141.4826  142.0620  167.5366 C.ar    1  UNL1       -0.0003
     33 C         142.7062  141.7601  166.7231 C.ar    1  UNL1       -0.0000
     34 C         142.6299  141.7610  165.2251 C.ar    1  UNL1       -0.0003
     35 C         141.3300  142.0638  164.5404 C.ar    1  UNL1       -0.0026
     36 C         138.5208  144.0585  164.1833 C.3     1  UNL1        0.1611
     37 O         139.3660  145.2055  164.6522 O.3     1  UNL1       -0.3799
     38 H         139.2343  145.3362  165.6043 H       1  UNL1        0.2105
@<TRIPOS>BOND
     1    17    18    1
     2    18    11    1
     3    11    12   ar
     4    12    13   ar
     5    13    19    1
     6    19    20    1
     7    20    22    1
     8    22    23    1
     9    23    24    1
    10    24    25    1
    11    24    26    1
    12    13    14   ar
    13    14    15   ar
    14    15    16   ar
    15    16     1    1
    16     1     2   ar
    17     2     3   ar
    18     3     4   ar
    19     4    27    1
    20    27    29    1
    21    29    36    1
    22    36    37    1
    23    29    30    1
    24    30    31   ar
    25    31    32   ar
    26    32    33   ar
    27    33    34   ar
    28    34    35   ar
    29     4     5   ar
    30     5     6   ar
    31     6     7   ar
    32     7     8   ar
    33     8     9   ar
    34    16    11   ar
    35     9     1   ar
    36     8     3    1
    37    35    30   ar
    38    20    21    1
    39    27    28    1
    40    37    38    1
    41     7    10    1
@<TRIPOS>MOLECULE
*****
 38 41 0 0 0
SMALL
GASTEIGER

@<TRIPOS>ATOM
      1 C         141.4394  143.5586  163.1798 C.ar    1  UNL1        0.0860
      2 C         140.2992  143.0237  162.3651 C.ar    1  UNL1        0.0250
      3 C         140.3051  143.7284  161.0409 C.ar    1  UNL1        0.0668
      4 C         139.4166  143.6118  159.8379 C.ar    1  UNL1        0.1333
      5 N         139.6720  144.4656  158.6314 N.ar    1  UNL1       -0.2108
      6 C         140.8158  145.4360  158.6278 C.ar    1  UNL1        0.1773
      7 N         141.7042  145.5525  159.8307 N.ar    1  UNL1       -0.3214
      8 C         141.4489  144.6988  161.0373 C.ar    1  UNL1        0.1443
      9 N         142.1499  144.5938  162.3592 N.ar    1  UNL1       -0.2283
     10 H         142.4550  146.1894  159.8283 H       1  UNL1        0.1689
     11 C         140.7434  143.0238  165.6252 C.ar    1  UNL1        0.1398
     12 C         141.1089  142.5982  167.0163 C.ar    1  UNL1        0.0340
     13 C         142.5358  142.2817  167.3532 C.ar    1  UNL1       -0.0034
     14 C         143.5973  142.3908  166.2990 C.ar    1  UNL1       -0.0027
     15 C         143.2319  142.8164  164.9079 C.ar    1  UNL1        0.0042
     16 C         141.8049  143.1329  164.5710 C.ar    1  UNL1        0.0516
     17 C         138.8158  144.7504  165.3936 C.3     1  UNL1        0.2525
     18 O         139.3164  143.3403  165.2882 O.3     1  UNL1       -0.4714
     19 C         142.9014  141.8561  168.7444 C.3     1  UNL1        0.0958
     20 N         142.9003  140.4009  169.1081 N.3     1  UNL1       -0.2926
     21 H         143.8763  140.1213  169.2065 H       1  UNL1        0.1236
     22 C         142.1904  139.9377  170.3456 C.3     1  UNL1        0.0864
     23 C         141.3517  140.8998  171.1337 C.3     1  UNL1        0.0895
     24 N         140.0611  141.4101  170.5648 N.3     1  UNL1       -0.2691
     25 C         139.7370  142.8731  170.6347 C.3     1  UNL1        0.0897
     26 C         139.0944  140.4575  169.9259 C.3     1  UNL1        0.0897
     27 N         138.2727  142.6414  159.8416 N.pl3   1  UNL1       -0.3139
     28 H         137.3920  142.9199  160.1821 H       1  UNL1        0.1485
     29 CA        138.4708  141.2467  159.3263 C.3     1  UNL1        0.1227
     30 C         138.7795  140.1314  160.2807 C.ar    1  UNL1       -0.0021
     31 C         140.2014  139.7124  160.5101 C.ar    1  UNL1       -0.0026
     32 C         140.5100  138.5971  161.4644 C.ar    1  UNL1       -0.0003
     33 C         139.3967  137.9007  162.1894 C.ar    1  UNL1       -0.0000
     34 C         137.9748  138.3197  161.9601 C.ar    1  UNL1       -0.0003
     35 C         137.6662  139.4350  161.0057 C.ar    1  UNL1       -0.0026
     36 C         138.3603  140.9673  157.8567 C.3     1  UNL1        0.1611
     37 O         138.4358  142.0955  156.8710 O.3     1  UNL1       -0.3799
     38 H         137.6667  142.6757  156.9843 H       1  UNL1        0.2105
@<TRIPOS>BOND
     1    17    18    1
     2    18    11    1
     3    11    12   ar
     4    12    13   ar
     5    13    19    1
     6    19    20    1
     7    20    22    1
     8    22    23    1
     9    23    24    1
    10    24    25    1
    11    24    26    1
    12    13    14   ar
    13    14    15   ar
    14    15    16   ar
    15    16     1    1
    16     1     2   ar
    17     2     3   ar
    18     3     4   ar
    19     4    27    1
    20    27    29    1
    21    29    36    1
    22    36    37    1
    23    29    30    1
    24    30    31   ar
    25    31    32   ar
    26    32    33   ar
    27    33    34   ar
    28    34    35   ar
    29     4     5   ar
    30     5     6   ar
    31     6     7   ar
    32     7     8   ar
    33     8     9   ar
    34    16    11   ar
    35     9     1   ar
    36     8     3    1
    37    35    30   ar
    38    20    21    1
    39    27    28    1
    40    37    38    1
    41     7    10    1
@<TRIPOS>MOLECULE
*****
 38 41 0 0 0
SMALL
GASTEIGER

@<TRIPOS>ATOM
      1 C         139.9201  140.4691  163.7674 C.ar    1  UNL1        0.0860
      2 C         139.7696  141.8085  163.1091 C.ar    1  UNL1        0.0250
      3 C         139.2336  141.5874  161.7257 C.ar    1  UNL1        0.0668
      4 C         138.8869  142.5395  160.6196 C.ar    1  UNL1        0.1333
      5 N         138.3593  142.0156  159.3169 N.ar    1  UNL1       -0.2108
      6 C         138.1785  140.5396  159.1202 C.ar    1  UNL1        0.1773
      7 N         138.5252  139.5875  160.2262 N.ar    1  UNL1       -0.3214
      8 C         139.0528  140.1114  161.5290 C.ar    1  UNL1        0.1443
      9 N         139.4771  139.4203  162.7908 N.ar    1  UNL1       -0.2283
     10 H         138.4066  138.6188  160.0971 H       1  UNL1        0.1689
     11 C         141.8905  140.0105  165.3975 C.ar    1  UNL1        0.1398
     12 C         142.3954  139.7633  166.7881 C.ar    1  UNL1        0.0340
     13 C         141.4346  139.7274  167.9395 C.ar    1  UNL1       -0.0034
     14 C         139.9690  139.9388  167.7001 C.ar    1  UNL1       -0.0027
     15 C         139.4641  140.1860  166.3095 C.ar    1  UNL1        0.0042
     16 C         140.4249  140.2219  165.1582 C.ar    1  UNL1        0.0516
     17 C         143.2699  138.7699  163.5786 C.3     1  UNL1        0.2525
     18 O         142.8513  140.0463  164.2461 O.3     1  UNL1       -0.4714
     19 C         141.9394  139.4802  169.3302 C.3     1  UNL1        0.0958
     20 N         140.9826  139.4742  170.4854 N.3     1  UNL1       -0.2926
     21 H         141.1884  138.6392  171.0339 H       1  UNL1        0.1236
     22 C         140.9579  140.6271  171.4446 C.3     1  UNL1        0.0864
     23 C         140.4000  141.9507  171.0122 C.3     1  UNL1        0.0895
     24 N         141.1573  142.8009  170.0356 N.3     1  UNL1       -0.2691
     25 C         140.4528  143.3879  168.8485 C.3     1  UNL1        0.0897
     26 C         142.6189  143.0639  170.2461 C.3     1  UNL1        0.0897
     27 N         139.0677  144.0156  160.8164 N.pl3   1  UNL1       -0.3139
     28 H         138.3140  144.5665  161.1288 H       1  UNL1        0.1485
     29 CA        140.3969  144.6521  160.5372 C.3     1  UNL1        0.1227
     30 C         141.4694  144.6400  161.5858 C.ar    1  UNL1       -0.0021
     31 C         141.2555  145.3574  162.8857 C.ar    1  UNL1       -0.0026
     32 C         142.3280  145.3453  163.9343 C.ar    1  UNL1       -0.0003
     33 C         143.6143  144.6157  163.6831 C.ar    1  UNL1       -0.0000
     34 C         143.8282  143.8983  162.3833 C.ar    1  UNL1       -0.0003
     35 C         142.7557  143.9104  161.3346 C.ar    1  UNL1       -0.0026
     36 C         140.6537  145.3008  159.2092 C.3     1  UNL1        0.1611
     37 O         140.8835  144.4538  157.9927 O.3     1  UNL1       -0.3799
     38 H         141.7118  143.9594  158.0947 H       1  UNL1        0.2105
@<TRIPOS>BOND
     1    17    18    1
     2    18    11    1
     3    11    12   ar
     4    12    13   ar
     5    13    19    1
     6    19    20    1
     7    20    22    1
     8    22    23    1
     9    23    24    1
    10    24    25    1
    11    24    26    1
    12    13    14   ar
    13    14    15   ar
    14    15    16   ar
    15    16     1    1
    16     1     2   ar
    17     2     3   ar
    18     3     4   ar
    19     4    27    1
    20    27    29    1
    21    29    36    1
    22    36    37    1
    23    29    30    1
    24    30    31   ar
    25    31    32   ar
    26    32    33   ar
    27    33    34   ar
    28    34    35   ar
    29     4     5   ar
    30     5     6   ar
    31     6     7   ar
    32     7     8   ar
    33     8     9   ar
    34    16    11   ar
    35     9     1   ar
    36     8     3    1
    37    35    30   ar
    38    20    21    1
    39    27    28    1
    40    37    38    1
    41     7    10    1
@<TRIPOS>MOLECULE
*****
 38 41 0 0 0
SMALL
GASTEIGER

@<TRIPOS>ATOM
      1 C         141.8520  142.6239  163.3591 C.ar    1  UNL1        0.0860
      2 C         141.3497  141.5607  162.4278 C.ar    1  UNL1        0.0250
      3 C         141.6257  142.0072  161.0226 C.ar    1  UNL1        0.0668
      4 C         141.3512  141.3674  159.6940 C.ar    1  UNL1        0.1333
      5 N         141.7497  142.0666  158.4282 N.ar    1  UNL1       -0.2108
      6 C         142.4227  143.4056  158.4910 C.ar    1  UNL1        0.1773
      7 N         142.6972  144.0454  159.8196 N.ar    1  UNL1       -0.3214
      8 C         142.2987  143.3462  161.0854 C.ar    1  UNL1        0.1443
      9 N         142.4386  143.7274  162.5294 N.ar    1  UNL1       -0.2283
     10 H         143.1389  144.9243  159.8609 H       1  UNL1        0.1689
     11 C         140.5253  143.0179  165.5579 C.ar    1  UNL1        0.1398
     12 C         140.4537  142.9837  167.0557 C.ar    1  UNL1        0.0340
     13 C         141.6372  142.5211  167.8527 C.ar    1  UNL1       -0.0034
     14 C         142.8924  142.0928  167.1519 C.ar    1  UNL1       -0.0027
     15 C         142.9640  142.1270  165.6540 C.ar    1  UNL1        0.0042
     16 C         141.7805  142.5896  164.8570 C.ar    1  UNL1        0.0516
     17 C         138.6602  144.7702  165.1100 C.3     1  UNL1        0.2525
     18 O         139.3418  143.4805  164.7608 O.3     1  UNL1       -0.4714
     19 C         141.5657  142.4868  169.3507 C.3     1  UNL1        0.0958
     20 N         140.4851  141.7008  170.0321 N.3     1  UNL1       -0.2926
     21 H         139.6167  142.2198  169.9020 H       1  UNL1        0.1236
     22 C         140.2105  140.2862  169.6157 C.3     1  UNL1        0.0864
     23 C         138.9019  139.9342  168.9724 C.3     1  UNL1        0.0895
     24 N         138.8787  139.3443  167.5935 N.3     1  UNL1       -0.2691
     25 C         137.6732  138.5861  167.1223 C.3     1  UNL1        0.0897
     26 C         140.0610  139.5125  166.6858 C.3     1  UNL1        0.0897
     27 N         140.6782  140.0282  159.6312 N.pl3   1  UNL1       -0.3139
     28 H         139.8095  139.9347  159.1775 H       1  UNL1        0.1485
     29 CA        141.3288  138.8317  160.2596 C.3     1  UNL1        0.1227
     30 C         140.7851  138.2675  161.5386 C.ar    1  UNL1       -0.0021
     31 C         139.3053  138.2573  161.7846 C.ar    1  UNL1       -0.0026
     32 C         138.7616  137.6931  163.0636 C.ar    1  UNL1       -0.0003
     33 C         139.6974  137.1392  164.0967 C.ar    1  UNL1       -0.0000
     34 C         141.1771  137.1494  163.8508 C.ar    1  UNL1       -0.0003
     35 C         141.7209  137.7136  162.5717 C.ar    1  UNL1       -0.0026
     36 C         142.5233  138.1992  159.6088 C.3     1  UNL1        0.1611
     37 O         143.8924  138.7660  159.8423 O.3     1  UNL1       -0.3799
     38 H         143.9459  139.6528  159.4529 H       1  UNL1        0.2105
@<TRIPOS>BOND
     1    17    18    1
     2    18    11    1
     3    11    12   ar
     4    12    13   ar
     5    13    19    1
     6    19    20    1
     7    20    22    1
     8    22    23    1
     9    23    24    1
    10    24    25    1
    11    24    26    1
    12    13    14   ar
    13    14    15   ar
    14    15    16   ar
    15    16     1    1
    16     1     2   ar
    17     2     3   ar
    18     3     4   ar
    19     4    27    1
    20    27    29    1
    21    29    36    1
    22    36    37    1
    23    29    30    1
    24    30    31   ar
    25    31    32   ar
    26    32    33   ar
    27    33    34   ar
    28    34    35   ar
    29     4     5   ar
    30     5     6   ar
    31     6     7   ar
    32     7     8   ar
    33     8     9   ar
    34    16    11   ar
    35     9     1   ar
    36     8     3    1
    37    35    30   ar
    38    20    21    1
    39    27    28    1
    40    37    38    1
    41     7    10    1
@<TRIPOS>MOLECULE
*****
 38 41 0 0 0
SMALL
GASTEIGER

@<TRIPOS>ATOM
      1 C         139.9619  138.9685  161.6811 C.ar    1  UNL1        0.0860
      2 C         141.3169  139.4862  161.2994 C.ar    1  UNL1        0.0250
      3 C         141.4531  139.3745  159.8097 C.ar    1  UNL1        0.0668
      4 C         142.5702  139.7312  158.8743 C.ar    1  UNL1        0.1333
      5 N         142.4163  139.5011  157.4001 N.ar    1  UNL1       -0.2108
      6 C         141.1454  138.9144  156.8612 C.ar    1  UNL1        0.1773
      7 N         140.0283  138.5577  157.7966 N.ar    1  UNL1       -0.3214
      8 C         140.1822  138.7877  159.2708 C.ar    1  UNL1        0.1443
      9 N         139.2605  138.5368  160.4274 N.ar    1  UNL1       -0.2283
     10 H         139.1942  138.1725  157.4429 H       1  UNL1        0.1689
     11 C         138.7908  140.1115  163.6991 C.ar    1  UNL1        0.1398
     12 C         138.2346  140.0384  165.0902 C.ar    1  UNL1        0.0340
     13 C         138.2934  138.7492  165.8546 C.ar    1  UNL1       -0.0034
     14 C         138.9083  137.5330  165.2278 C.ar    1  UNL1       -0.0027
     15 C         139.4645  137.6061  163.8367 C.ar    1  UNL1        0.0042
     16 C         139.4057  138.8954  163.0723 C.ar    1  UNL1        0.0516
     17 C         137.5031  142.2583  163.0035 C.3     1  UNL1        0.2525
     18 O         138.7320  141.4009  162.9346 O.3     1  UNL1       -0.4714
     19 C         137.7372  138.6760  167.2458 C.3     1  UNL1        0.0958
     20 N         138.3891  139.4463  168.3556 N.3     1  UNL1       -0.2926
     21 H         138.3073  138.8761  169.1973 H       1  UNL1        0.1236
     22 C         139.8296  139.8490  168.2435 C.3     1  UNL1        0.0864
     23 C         140.2023  141.3017  168.2148 C.3     1  UNL1        0.0895
     24 N         140.4327  142.0424  169.4986 N.3     1  UNL1       -0.2691
     25 C         140.6512  141.2832  170.7738 C.3     1  UNL1        0.0897
     26 C         140.4445  143.5423  169.5074 C.3     1  UNL1        0.0897
     27 N         143.8411  140.3180  159.4133 N.pl3   1  UNL1       -0.3139
     28 H         144.6311  139.7452  159.5440 H       1  UNL1        0.1485
     29 CA        143.9084  141.7774  159.7531 C.3     1  UNL1        0.1227
     30 C         143.9229  142.2135  161.1882 C.ar    1  UNL1       -0.0021
     31 C         142.8154  143.0728  161.7223 C.ar    1  UNL1       -0.0026
     32 C         142.8299  143.5088  163.1574 C.ar    1  UNL1       -0.0003
     33 C         143.9520  143.0857  164.0585 C.ar    1  UNL1       -0.0000
     34 C         145.0594  142.2264  163.5245 C.ar    1  UNL1       -0.0003
     35 C         145.0449  141.7903  162.0893 C.ar    1  UNL1       -0.0026
     36 C         143.9611  142.8009  158.6577 C.3     1  UNL1        0.1611
     37 O         145.1912  142.9282  157.8088 O.3     1  UNL1       -0.3799
     38 H         145.9306  143.2371  158.3553 H       1  UNL1        0.2105
@<TRIPOS>BOND
     1    17    18    1
     2    18    11    1
     3    11    12   ar
     4    12    13   ar
     5    13    19    1
     6    19    20    1
     7    20    22    1
     8    22    23    1
     9    23    24    1
    10    24    25    1
    11    24    26    1
    12    13    14   ar
    13    14    15   ar
    14    15    16   ar
    15    16     1    1
    16     1     2   ar
    17     2     3   ar
    18     3     4   ar
    19     4    27    1
    20    27    29    1
    21    29    36    1
    22    36    37    1
    23    29    30    1
    24    30    31   ar
    25    31    32   ar
    26    32    33   ar
    27    33    34   ar
    28    34    35   ar
    29     4     5   ar
    30     5     6   ar
    31     6     7   ar
    32     7     8   ar
    33     8     9   ar
    34    16    11   ar
    35     9     1   ar
    36     8     3    1
    37    35    30   ar
    38    20    21    1
    39    27    28    1
    40    37    38    1
    41     7    10    1
@<TRIPOS>MOLECULE
*****
 38 41 0 0 0
SMALL
GASTEIGER

@<TRIPOS>ATOM
      1 C         141.6076  143.4081  163.2773 C.ar    1  UNL1        0.0860
      2 C         141.5051  142.4776  162.1053 C.ar    1  UNL1        0.0250
      3 C         141.1355  143.2898  160.8995 C.ar    1  UNL1        0.0668
      4 C         140.8974  142.9100  159.4681 C.ar    1  UNL1        0.1333
      5 N         140.5334  143.9627  158.4635 N.ar    1  UNL1       -0.2108
      6 C         140.4074  145.3951  158.8903 C.ar    1  UNL1        0.1773
      7 N         140.6456  145.7749  160.3217 N.ar    1  UNL1       -0.3214
      8 C         141.0096  144.7222  161.3264 C.ar    1  UNL1        0.1443
      9 N         141.3013  144.7954  162.7959 N.ar    1  UNL1       -0.2283
     10 H         140.5629  146.7151  160.6019 H       1  UNL1        0.1689
     11 C         143.3919  142.9519  165.1099 C.ar    1  UNL1        0.1398
     12 C         143.7396  142.5634  166.5163 C.ar    1  UNL1        0.0340
     13 C         142.6507  142.2427  167.4968 C.ar    1  UNL1       -0.0034
     14 C         141.2140  142.3104  167.0707 C.ar    1  UNL1       -0.0027
     15 C         140.8663  142.6988  165.6643 C.ar    1  UNL1        0.0042
     16 C         141.9553  143.0196  164.6839 C.ar    1  UNL1        0.0516
     17 C         145.1947  142.1652  163.4125 C.3     1  UNL1        0.2525
     18 O         144.4809  143.2727  164.1294 O.3     1  UNL1       -0.4714
     19 C         142.9983  141.8542  168.9033 C.3     1  UNL1        0.0958
     20 N         143.0051  140.4082  169.3021 N.3     1  UNL1       -0.2926
     21 H         143.9692  140.1721  169.5370 H       1  UNL1        0.1236
     22 C         142.1541  139.9417  170.4458 C.3     1  UNL1        0.0864
     23 C         141.2988  140.9217  171.1928 C.3     1  UNL1        0.0895
     24 N         140.0307  141.4330  170.5760 N.3     1  UNL1       -0.2691
     25 C         139.1036  140.4862  169.8731 C.3     1  UNL1        0.0897
     26 C         139.6895  142.8912  170.6621 C.3     1  UNL1        0.0897
     27 N         141.0233  141.4775  159.0413 N.pl3   1  UNL1       -0.3139
     28 H         141.9026  141.1153  158.7864 H       1  UNL1        0.1485
     29 CA        139.8096  140.5969  159.0029 C.3     1  UNL1        0.1227
     30 C         139.4908  139.7079  160.1682 C.ar    1  UNL1       -0.0021
     31 C         140.5766  138.8984  160.8131 C.ar    1  UNL1       -0.0026
     32 C         140.2578  138.0094  161.9785 C.ar    1  UNL1       -0.0003
     33 C         138.8533  137.9299  162.4989 C.ar    1  UNL1       -0.0000
     34 C         137.7675  138.7394  161.8541 C.ar    1  UNL1       -0.0003
     35 C         138.0863  139.6284  160.6887 C.ar    1  UNL1       -0.0026
     36 C         138.9147  140.6054  157.7991 C.3     1  UNL1        0.1611
     37 O         138.5459  139.3147  157.1297 O.3     1  UNL1       -0.3799
     38 H         139.3388  138.9146  156.7397 H       1  UNL1        0.2105
@<TRIPOS>BOND
     1    17    18    1
     2    18    11    1
     3    11    12   ar
     4    12    13   ar
     5    13    19    1
     6    19    20    1
     7    20    22    1
     8    22    23    1
     9    23    24    1
    10    24    25    1
    11    24    26    1
    12    13    14   ar
    13    14    15   ar
    14    15    16   ar
    15    16     1    1
    16     1     2   ar
    17     2     3   ar
    18     3     4   ar
    19     4    27    1
    20    27    29    1
    21    29    36    1
    22    36    37    1
    23    29    30    1
    24    30    31   ar
    25    31    32   ar
    26    32    33   ar
    27    33    34   ar
    28    34    35   ar
    29     4     5   ar
    30     5     6   ar
    31     6     7   ar
    32     7     8   ar
    33     8     9   ar
    34    16    11   ar
    35     9     1   ar
    36     8     3    1
    37    35    30   ar
    38    20    21    1
    39    27    28    1
    40    37    38    1
    41     7    10    1
@<TRIPOS>MOLECULE
*****
 38 41 0 0 0
SMALL
GASTEIGER

@<TRIPOS>ATOM
      1 C         140.1026  138.6348  161.8902 C.ar    1  UNL1        0.0860
      2 C         139.6375  139.9129  162.5227 C.ar    1  UNL1        0.0250
      3 C         139.0741  139.5834  163.8734 C.ar    1  UNL1        0.0668
      4 C         138.4697  140.4412  164.9452 C.ar    1  UNL1        0.1333
      5 N         137.9823  139.8173  166.2193 N.ar    1  UNL1       -0.2108
      6 C         138.0993  138.3357  166.4214 C.ar    1  UNL1        0.1773
      7 N         138.7036  137.4778  165.3495 N.ar    1  UNL1       -0.3214
      8 C         139.1910  138.1017  164.0755 C.ar    1  UNL1        0.1443
      9 N         139.8266  137.5154  162.8499 N.ar    1  UNL1       -0.2283
     10 H         138.7803  136.5053  165.4822 H       1  UNL1        0.1689
     11 C         139.9157  138.7394  159.3009 C.ar    1  UNL1        0.1398
     12 C         140.5460  138.6043  157.9465 C.ar    1  UNL1        0.0340
     13 C         141.9935  138.2295  157.8269 C.ar    1  UNL1       -0.0034
     14 C         142.8107  137.9898  159.0617 C.ar    1  UNL1       -0.0027
     15 C         142.1804  138.1249  160.4161 C.ar    1  UNL1        0.0042
     16 C         140.7329  138.4997  160.5357 C.ar    1  UNL1        0.0516
     17 C         138.0146  140.4891  159.0285 C.3     1  UNL1        0.2525
     18 O         138.4682  139.1142  159.4206 O.3     1  UNL1       -0.4714
     19 C         142.6238  138.0944  156.4725 C.3     1  UNL1        0.0958
     20 N         142.4708  136.8191  155.6978 N.3     1  UNL1       -0.2926
     21 H         143.2635  136.7662  155.0581 H       1  UNL1        0.1236
     22 C         142.4088  135.5059  156.4199 C.3     1  UNL1        0.0864
     23 C         143.6756  134.8076  156.8169 C.3     1  UNL1        0.0895
     24 N         143.6823  133.3207  157.0143 N.3     1  UNL1       -0.2691
     25 C         144.7618  132.6777  157.8338 C.3     1  UNL1        0.0897
     26 C         142.6096  132.4767  156.3923 C.3     1  UNL1        0.0897
     27 N         138.3528  141.9229  164.7430 N.pl3   1  UNL1       -0.3139
     28 H         137.4669  142.3348  164.6216 H       1  UNL1        0.1485
     29 CA        139.5857  142.7771  164.7259 C.3     1  UNL1        0.1227
     30 C         140.6722  142.5462  165.7340 C.ar    1  UNL1       -0.0021
     31 C         142.0611  142.2118  165.2765 C.ar    1  UNL1       -0.0026
     32 C         143.1476  141.9809  166.2845 C.ar    1  UNL1       -0.0003
     33 C         142.8452  142.0843  167.7501 C.ar    1  UNL1       -0.0000
     34 C         141.4564  142.4186  168.2076 C.ar    1  UNL1       -0.0003
     35 C         140.3698  142.6496  167.1995 C.ar    1  UNL1       -0.0026
     36 C         139.7322  143.8623  163.7007 C.3     1  UNL1        0.1611
     37 O         139.6652  145.3017  164.1174 O.3     1  UNL1       -0.3799
     38 H         138.7733  145.5034  164.4410 H       1  UNL1        0.2105
@<TRIPOS>BOND
     1    17    18    1
     2    18    11    1
     3    11    12   ar
     4    12    13   ar
     5    13    19    1
     6    19    20    1
     7    20    22    1
     8    22    23    1
     9    23    24    1
    10    24    25    1
    11    24    26    1
    12    13    14   ar
    13    14    15   ar
    14    15    16   ar
    15    16     1    1
    16     1     2   ar
    17     2     3   ar
    18     3     4   ar
    19     4    27    1
    20    27    29    1
    21    29    36    1
    22    36    37    1
    23    29    30    1
    24    30    31   ar
    25    31    32   ar
    26    32    33   ar
    27    33    34   ar
    28    34    35   ar
    29     4     5   ar
    30     5     6   ar
    31     6     7   ar
    32     7     8   ar
    33     8     9   ar
    34    16    11   ar
    35     9     1   ar
    36     8     3    1
    37    35    30   ar
    38    20    21    1
    39    27    28    1
    40    37    38    1
    41     7    10    1
