@<TRIPOS>MOLECULE
*****
 46 52 0 0 0
SMALL
GASTEIGER

@<TRIPOS>ATOM
      1 N         142.1458  136.9688  156.3171 N.am    1  UNL1       -0.2222
      2 C         141.9982  137.9455  157.4460 C.2     1  UNL1        0.3219
      3 O         141.4360  139.3324  157.3442 O.2     1  UNL1       -0.2512
      4 N         142.5117  137.2917  158.6947 N.am    1  UNL1       -0.1907
      5 C         142.9765  135.9111  158.3375 C.2     1  UNL1        0.2529
      6 O         143.5643  134.9063  159.2835 O.2     1  UNL1       -0.2724
      7 C         142.7504  135.7114  156.8680 C.3     1  UNL1        0.1391
      8 C         142.4667  135.6579  155.3961 C.3     1  UNL1        0.0449
      9 C         142.7887  134.4186  154.6149 C.3     1  UNL1        0.0746
     10 N         143.3943  133.2328  155.3056 N.3     1  UNL1       -0.2676
     11 C         143.6779  133.2863  156.7775 C.3     1  UNL1        0.0746
     12 C         143.3560  134.5256  157.5587 C.3     1  UNL1        0.0449
     13 C         139.9979  137.0670  152.9814 C.ar    1  UNL1        0.2293
     14 C         140.3867  136.8282  154.4104 C.ar    1  UNL1        0.0924
     15 C         141.7570  137.2076  154.8882 C.ar    1  UNL1        0.1453
     16 N         142.7385  137.8257  153.9371 N.ar    1  UNL1       -0.2084
     17 C         142.3498  138.0645  152.5082 C.ar    1  UNL1        0.2027
     18 N         140.9794  137.6851  152.0304 N.ar    1  UNL1       -0.1892
     19 C         137.4166  137.3320  153.1105 C.3     1  UNL1        0.2542
     20 O         138.6276  136.6877  152.5035 O.3     1  UNL1       -0.4560
     21 C         142.5530  137.9101  160.0606 C.ar    1  UNL1        0.0622
     22 C         141.2841  138.3730  160.7130 C.ar    1  UNL1        0.0154
     23 C         141.3255  138.9914  162.0790 C.ar    1  UNL1        0.0013
     24 C         142.6357  139.1469  162.7925 C.ar    1  UNL1        0.0001
     25 C         143.9046  138.6839  162.1401 C.ar    1  UNL1        0.0013
     26 C         143.8632  138.0656  160.7741 C.ar    1  UNL1        0.0154
     27 C         142.6770  139.7653  164.1585 C.ar    1  UNL1        0.0000
     28 C         142.9506  141.2323  164.3097 C.ar    1  UNL1        0.0000
     29 C         142.9919  141.8507  165.6757 C.ar    1  UNL1        0.0015
     30 C         142.7597  141.0019  166.8905 C.ar    1  UNL1        0.0194
     31 C         142.4861  139.5348  166.7393 C.ar    1  UNL1        0.0015
     32 C         142.4448  138.9165  165.3734 C.ar    1  UNL1        0.0000
     33 C         142.8010  141.6203  168.2565 C.2     1  UNL1        0.1052
     34 C         141.8718  141.3112  169.3927 C.2     1  UNL1        0.0820
     35 C         142.2753  142.1562  170.5645 C.2     1  UNL1        0.2877
     36 O         141.6160  142.1679  171.9118 O.2     1  UNL1       -0.2664
     37 N         143.4540  142.9876  170.1526 N.am    1  UNL1       -0.0753
     38 N         143.7789  142.6563  168.7260 N.2     1  UNL1       -0.1557
     39 C         143.7162  131.9934  154.5242 C.3     1  UNL1        0.1183
     40 C         143.6192  130.6475  155.1793 C.ar    1  UNL1        0.0712
     41 N         144.8627  129.9453  155.6381 N.ar    1  UNL1       -0.2471
     42 C         144.7657  128.5994  156.2932 C.ar    1  UNL1        0.0985
     43 C         143.4251  127.9557  156.4894 C.ar    1  UNL1        0.0203
     44 C         142.1816  128.6579  156.0306 C.ar    1  UNL1       -0.0015
     45 C         142.2786  130.0037  155.3755 C.ar    1  UNL1       -0.0069
     46 C         141.0350  130.7059  154.9167 C.3     1  UNL1        0.0323
@<TRIPOS>BOND
     1    19    20    1
     2    20    13    1
     3    13    14   ar
     4    14    15   ar
     5    15     1    1
     6     1     2   am
     7     2     3    2
     8     2     4   am
     9     4    21    1
    10    21    22   ar
    11    22    23   ar
    12    23    24   ar
    13    24    27    1
    14    27    28   ar
    15    28    29   ar
    16    29    30   ar
    17    30    33    1
    18    33    34    2
    19    34    35    1
    20    35    36    2
    21    35    37    1
    22    37    38    2
    23    30    31   ar
    24    31    32   ar
    25    24    25   ar
    26    25    26   ar
    27     4     5   am
    28     5     6    2
    29     5     7    1
    30     7     8    1
    31     8     9    1
    32     9    10    1
    33    10    39    1
    34    39    40    1
    35    40    41   ar
    36    41    42   ar
    37    42    43   ar
    38    43    44   ar
    39    44    45   ar
    40    45    46    1
    41    10    11    1
    42    11    12    1
    43    15    16   ar
    44    16    17   ar
    45    17    18   ar
    46    18    13   ar
    47     7     1    1
    48    45    40   ar
    49    26    21   ar
    50    12     7    1
    51    32    27   ar
    52    38    33    1
@<TRIPOS>MOLECULE
*****
 46 52 0 0 0
SMALL
GASTEIGER

@<TRIPOS>ATOM
      1 N         143.1806  138.8820  156.4274 N.am    1  UNL1       -0.2222
      2 C         142.6842  138.8669  157.8429 C.2     1  UNL1        0.3219
      3 O         141.6046  137.9803  158.3892 O.2     1  UNL1       -0.2512
      4 N         143.4571  139.8940  158.6162 N.am    1  UNL1       -0.1907
      5 C         144.4310  140.5439  157.6786 C.2     1  UNL1        0.2529
      6 O         145.4049  141.6287  158.0317 O.2     1  UNL1       -0.2724
      7 C         144.2602  139.9185  156.3259 C.3     1  UNL1        0.1391
      8 C         143.9774  139.2039  155.0378 C.3     1  UNL1        0.0449
      9 C         144.7504  139.5535  153.8008 C.3     1  UNL1        0.0746
     10 N         145.8062  140.6178  153.8519 N.3     1  UNL1       -0.2676
     11 C         146.0889  141.3324  155.1400 C.3     1  UNL1        0.0746
     12 C         145.3160  140.9828  156.3770 C.3     1  UNL1        0.0449
     13 C         142.5872  135.6998  154.1315 C.ar    1  UNL1        0.2293
     14 C         143.0833  136.5686  155.2491 C.ar    1  UNL1        0.0924
     15 C         142.6844  138.0133  155.3098 C.ar    1  UNL1        0.1453
     16 N         141.7894  138.5893  154.2528 N.ar    1  UNL1       -0.2084
     17 C         141.2933  137.7206  153.1352 C.ar    1  UNL1        0.2027
     18 N         141.6922  136.2758  153.0745 N.ar    1  UNL1       -0.1892
     19 C         143.1610  133.4716  155.3378 C.3     1  UNL1        0.2542
     20 O         142.9860  134.2551  154.0708 O.3     1  UNL1       -0.4560
     21 C         143.2860  140.2148  160.0713 C.ar    1  UNL1        0.0622
     22 C         142.3294  141.2897  160.4950 C.ar    1  UNL1        0.0154
     23 C         142.1583  141.6105  161.9502 C.ar    1  UNL1        0.0013
     24 C         142.9438  140.8564  162.9819 C.ar    1  UNL1        0.0001
     25 C         143.9004  139.7814  162.5583 C.ar    1  UNL1        0.0013
     26 C         144.0714  139.4606  161.1030 C.ar    1  UNL1        0.0154
     27 C         142.7727  141.1772  164.4372 C.ar    1  UNL1        0.0000
     28 C         141.7849  140.4083  165.2636 C.ar    1  UNL1        0.0000
     29 C         141.6138  140.7291  166.7189 C.ar    1  UNL1        0.0015
     30 C         142.4305  141.8189  167.3477 C.ar    1  UNL1        0.0194
     31 C         143.4183  142.5878  166.5212 C.ar    1  UNL1        0.0015
     32 C         143.5894  142.2670  165.0660 C.ar    1  UNL1        0.0000
     33 C         142.2594  142.1397  168.8029 C.2     1  UNL1        0.1052
     34 C         141.0755  141.7816  169.6515 C.2     1  UNL1        0.0820
     35 C         141.3266  142.2955  171.0381 C.2     1  UNL1        0.2877
     36 O         140.4010  142.1579  172.2105 O.2     1  UNL1       -0.2664
     37 N         142.6657  142.9712  171.0467 N.am    1  UNL1       -0.0753
     38 N         143.2423  142.8749  169.6652 N.2     1  UNL1       -0.1557
     39 C         146.5792  140.9675  152.6148 C.3     1  UNL1        0.1183
     40 C         147.8869  141.6935  152.7277 C.ar    1  UNL1        0.0712
     41 N         149.1718  140.9211  152.7763 N.ar    1  UNL1       -0.2471
     42 C         150.4795  141.6472  152.8892 C.ar    1  UNL1        0.0985
     43 C         150.5023  143.1456  152.9536 C.ar    1  UNL1        0.0203
     44 C         149.2174  143.9180  152.9050 C.ar    1  UNL1       -0.0015
     45 C         147.9097  143.1920  152.7921 C.ar    1  UNL1       -0.0069
     46 C         146.6247  143.9644  152.7436 C.3     1  UNL1        0.0323
@<TRIPOS>BOND
     1    19    20    1
     2    20    13    1
     3    13    14   ar
     4    14    15   ar
     5    15     1    1
     6     1     2   am
     7     2     3    2
     8     2     4   am
     9     4    21    1
    10    21    22   ar
    11    22    23   ar
    12    23    24   ar
    13    24    27    1
    14    27    28   ar
    15    28    29   ar
    16    29    30   ar
    17    30    33    1
    18    33    34    2
    19    34    35    1
    20    35    36    2
    21    35    37    1
    22    37    38    2
    23    30    31   ar
    24    31    32   ar
    25    24    25   ar
    26    25    26   ar
    27     4     5   am
    28     5     6    2
    29     5     7    1
    30     7     8    1
    31     8     9    1
    32     9    10    1
    33    10    39    1
    34    39    40    1
    35    40    41   ar
    36    41    42   ar
    37    42    43   ar
    38    43    44   ar
    39    44    45   ar
    40    45    46    1
    41    10    11    1
    42    11    12    1
    43    15    16   ar
    44    16    17   ar
    45    17    18   ar
    46    18    13   ar
    47     7     1    1
    48    45    40   ar
    49    26    21   ar
    50    12     7    1
    51    32    27   ar
    52    38    33    1
@<TRIPOS>MOLECULE
*****
 46 52 0 0 0
SMALL
GASTEIGER

@<TRIPOS>ATOM
      1 N         141.9342  144.0949  156.0436 N.am    1  UNL1       -0.2222
      2 C         142.0436  143.3120  157.3185 C.2     1  UNL1        0.3219
      3 O         142.8371  142.0545  157.5157 O.2     1  UNL1       -0.2512
      4 N         141.2200  144.0076  158.3617 N.am    1  UNL1       -0.1907
      5 C         140.6017  145.2203  157.7315 C.2     1  UNL1        0.2529
      6 O         139.7003  146.2059  158.4140 O.2     1  UNL1       -0.2724
      7 C         141.0431  145.2743  156.2989 C.3     1  UNL1        0.1391
      8 C         141.5650  145.1965  154.8948 C.3     1  UNL1        0.0449
      9 C         141.1825  146.2456  153.8933 C.3     1  UNL1        0.0746
     10 N         140.2781  147.3725  154.2959 N.3     1  UNL1       -0.2676
     11 C         139.7561  147.4503  155.7000 C.3     1  UNL1        0.0746
     12 C         140.1387  146.4012  156.7015 C.3     1  UNL1        0.0449
     13 C         144.5913  144.0292  153.0965 C.ar    1  UNL1        0.2293
     14 C         143.9262  144.3664  154.3980 C.ar    1  UNL1        0.0924
     15 C         142.5992  143.7577  154.7421 C.ar    1  UNL1        0.1453
     16 N         141.9372  142.8116  153.7847 N.ar    1  UNL1       -0.2084
     17 C         142.6022  142.4743  152.4832 C.ar    1  UNL1        0.2027
     18 N         143.9293  143.0831  152.1391 N.ar    1  UNL1       -0.1892
     19 C         146.9790  144.7685  153.8049 C.3     1  UNL1        0.2542
     20 O         145.9182  144.6379  152.7524 O.3     1  UNL1       -0.4560
     21 C         141.0454  143.5677  159.7850 C.ar    1  UNL1        0.0622
     22 C         140.2206  142.3549  160.0993 C.ar    1  UNL1        0.0154
     23 C         140.0460  141.9150  161.5227 C.ar    1  UNL1        0.0013
     24 C         140.6962  142.6878  162.6317 C.ar    1  UNL1        0.0001
     25 C         141.5211  143.9007  162.3174 C.ar    1  UNL1        0.0013
     26 C         141.6957  144.3405  160.8940 C.ar    1  UNL1        0.0154
     27 C         140.5217  142.2479  164.0551 C.ar    1  UNL1        0.0000
     28 C         140.5815  143.2558  165.1644 C.ar    1  UNL1        0.0000
     29 C         140.4069  142.8159  166.5877 C.ar    1  UNL1        0.0015
     30 C         140.1725  141.3680  166.9018 C.ar    1  UNL1        0.0194
     31 C         140.1127  140.3600  165.7925 C.ar    1  UNL1        0.0015
     32 C         140.2873  140.7999  164.3692 C.ar    1  UNL1        0.0000
     33 C         139.9979  140.9281  168.3252 C.2     1  UNL1        0.1052
     34 C         140.7310  141.4760  169.5136 C.2     1  UNL1        0.0820
     35 C         140.2458  140.7495  170.7329 C.2     1  UNL1        0.2877
     36 O         140.7117  140.9796  172.1401 O.2     1  UNL1       -0.2664
     37 N         139.2127  139.7526  170.2982 N.am    1  UNL1       -0.0753
     38 N         139.0595  139.8629  168.8100 N.2     1  UNL1       -0.1557
     39 C         139.8955  148.4216  153.2943 C.3     1  UNL1        0.1183
     40 C         140.7238  149.6646  153.1567 C.ar    1  UNL1        0.0712
     41 N         141.9378  149.6632  152.2758 N.ar    1  UNL1       -0.2471
     42 C         142.7661  150.9063  152.1382 C.ar    1  UNL1        0.0985
     43 C         142.3802  152.1507  152.8816 C.ar    1  UNL1        0.0203
     44 C         141.1662  152.1520  153.7626 C.ar    1  UNL1       -0.0015
     45 C         140.3380  150.9091  153.9002 C.ar    1  UNL1       -0.0069
     46 C         139.1239  150.9104  154.7811 C.3     1  UNL1        0.0323
@<TRIPOS>BOND
     1    19    20    1
     2    20    13    1
     3    13    14   ar
     4    14    15   ar
     5    15     1    1
     6     1     2   am
     7     2     3    2
     8     2     4   am
     9     4    21    1
    10    21    22   ar
    11    22    23   ar
    12    23    24   ar
    13    24    27    1
    14    27    28   ar
    15    28    29   ar
    16    29    30   ar
    17    30    33    1
    18    33    34    2
    19    34    35    1
    20    35    36    2
    21    35    37    1
    22    37    38    2
    23    30    31   ar
    24    31    32   ar
    25    24    25   ar
    26    25    26   ar
    27     4     5   am
    28     5     6    2
    29     5     7    1
    30     7     8    1
    31     8     9    1
    32     9    10    1
    33    10    39    1
    34    39    40    1
    35    40    41   ar
    36    41    42   ar
    37    42    43   ar
    38    43    44   ar
    39    44    45   ar
    40    45    46    1
    41    10    11    1
    42    11    12    1
    43    15    16   ar
    44    16    17   ar
    45    17    18   ar
    46    18    13   ar
    47     7     1    1
    48    45    40   ar
    49    26    21   ar
    50    12     7    1
    51    32    27   ar
    52    38    33    1
@<TRIPOS>MOLECULE
*****
 46 52 0 0 0
SMALL
GASTEIGER

@<TRIPOS>ATOM
      1 N         142.5919  137.6862  156.3729 N.am    1  UNL1       -0.2222
      2 C         142.4954  138.6396  157.5270 C.2     1  UNL1        0.3219
      3 O         142.2066  140.1087  157.4353 O.2     1  UNL1       -0.2512
      4 N         142.7384  137.8659  158.7889 N.am    1  UNL1       -0.1907
      5 C         142.9851  136.4344  158.4147 C.2     1  UNL1        0.2529
      6 O         143.2720  135.3111  159.3665 O.2     1  UNL1       -0.2724
      7 C         142.8946  136.3233  156.9215 C.3     1  UNL1        0.1391
      8 C         142.7743  136.3665  155.4270 C.3     1  UNL1        0.0449
      9 C         142.9547  135.1128  154.6236 C.3     1  UNL1        0.0746
     10 N         143.2554  133.8159  155.3147 N.3     1  UNL1       -0.2676
     11 C         143.3756  133.7727  156.8092 C.3     1  UNL1        0.0746
     12 C         143.1952  135.0264  157.6126 C.3     1  UNL1        0.0449
     13 C         143.3599  139.0379  152.7215 C.ar    1  UNL1        0.2293
     14 C         143.5353  138.6895  154.1699 C.ar    1  UNL1        0.0924
     15 C         142.4165  138.0346  154.9245 C.ar    1  UNL1        0.1453
     16 N         141.1224  137.7282  154.2308 N.ar    1  UNL1       -0.2084
     17 C         140.9469  138.0765  152.7824 C.ar    1  UNL1        0.2027
     18 N         142.0657  138.7314  152.0277 N.ar    1  UNL1       -0.1892
     19 C         145.2729  140.7920  152.6076 C.3     1  UNL1        0.2542
     20 O         144.4786  139.6928  151.9668 O.3     1  UNL1       -0.4560
     21 C         142.7353  138.4254  160.1806 C.ar    1  UNL1        0.0622
     22 C         141.4352  138.6726  160.8867 C.ar    1  UNL1        0.0154
     23 C         141.4321  139.2321  162.2784 C.ar    1  UNL1        0.0013
     24 C         142.7292  139.5445  162.9641 C.ar    1  UNL1        0.0001
     25 C         144.0294  139.2973  162.2580 C.ar    1  UNL1        0.0013
     26 C         144.0324  138.7377  160.8663 C.ar    1  UNL1        0.0154
     27 C         142.7261  140.1040  164.3558 C.ar    1  UNL1        0.0000
     28 C         142.7870  139.1800  165.5358 C.ar    1  UNL1        0.0000
     29 C         142.7839  139.7395  166.9276 C.ar    1  UNL1        0.0015
     30 C         142.7199  141.2231  167.1392 C.ar    1  UNL1        0.0194
     31 C         142.6590  142.1472  165.9592 C.ar    1  UNL1        0.0015
     32 C         142.6621  141.5877  164.5675 C.ar    1  UNL1        0.0000
     33 C         142.7168  141.7827  168.5309 C.2     1  UNL1        0.1052
     34 C         141.6878  141.5113  169.5880 C.2     1  UNL1        0.0820
     35 C         142.0772  142.2727  170.8203 C.2     1  UNL1        0.2877
     36 O         141.3283  142.2893  172.1200 O.2     1  UNL1       -0.2664
     37 N         143.3469  143.0147  170.5249 N.am    1  UNL1       -0.0753
     38 N         143.7422  142.7119  169.1099 N.2     1  UNL1       -0.1557
     39 C         143.4358  132.5621  154.5112 C.3     1  UNL1        0.1183
     40 C         143.3800  131.2239  155.1865 C.ar    1  UNL1        0.0712
     41 N         144.6355  130.5999  155.7197 N.ar    1  UNL1       -0.2471
     42 C         144.5796  129.2617  156.3951 C.ar    1  UNL1        0.0985
     43 C         143.2682  128.5475  156.5373 C.ar    1  UNL1        0.0203
     44 C         142.0127  129.1715  156.0041 C.ar    1  UNL1       -0.0015
     45 C         142.0685  130.5097  155.3288 C.ar    1  UNL1       -0.0069
     46 C         140.8130  131.1337  154.7956 C.3     1  UNL1        0.0323
@<TRIPOS>BOND
     1    19    20    1
     2    20    13    1
     3    13    14   ar
     4    14    15   ar
     5    15     1    1
     6     1     2   am
     7     2     3    2
     8     2     4   am
     9     4    21    1
    10    21    22   ar
    11    22    23   ar
    12    23    24   ar
    13    24    27    1
    14    27    28   ar
    15    28    29   ar
    16    29    30   ar
    17    30    33    1
    18    33    34    2
    19    34    35    1
    20    35    36    2
    21    35    37    1
    22    37    38    2
    23    30    31   ar
    24    31    32   ar
    25    24    25   ar
    26    25    26   ar
    27     4     5   am
    28     5     6    2
    29     5     7    1
    30     7     8    1
    31     8     9    1
    32     9    10    1
    33    10    39    1
    34    39    40    1
    35    40    41   ar
    36    41    42   ar
    37    42    43   ar
    38    43    44   ar
    39    44    45   ar
    40    45    46    1
    41    10    11    1
    42    11    12    1
    43    15    16   ar
    44    16    17   ar
    45    17    18   ar
    46    18    13   ar
    47     7     1    1
    48    45    40   ar
    49    26    21   ar
    50    12     7    1
    51    32    27   ar
    52    38    33    1
@<TRIPOS>MOLECULE
*****
 46 52 0 0 0
SMALL
GASTEIGER

@<TRIPOS>ATOM
      1 N         140.9741  140.1156  156.4918 N.am    1  UNL1       -0.2222
      2 C         142.0806  140.6446  155.6281 C.2     1  UNL1        0.3219
      3 O         141.9344  141.1682  154.2301 O.2     1  UNL1       -0.2512
      4 N         143.3591  140.5581  156.4080 N.am    1  UNL1       -0.1907
      5 C         143.0427  139.9757  157.7536 C.2     1  UNL1        0.2529
      6 O         144.0273  139.7128  158.8542 O.2     1  UNL1       -0.2724
      7 C         141.5687  139.7021  157.8054 C.3     1  UNL1        0.1391
      8 C         140.0876  139.4849  157.7107 C.3     1  UNL1        0.0449
      9 C         139.3395  138.9005  158.8722 C.3     1  UNL1        0.0746
     10 N         140.0727  138.5335  160.1283 N.3     1  UNL1       -0.2676
     11 C         141.5538  138.7507  160.2229 C.3     1  UNL1        0.0746
     12 C         142.3018  139.3351  159.0615 C.3     1  UNL1        0.0449
     13 C         137.5919  138.7416  154.9353 C.ar    1  UNL1        0.2293
     14 C         139.0389  138.8399  155.3181 C.ar    1  UNL1        0.0924
     15 C         139.5271  140.0172  156.1090 C.ar    1  UNL1        0.1453
     16 N         138.5684  141.0962  156.5171 N.ar    1  UNL1       -0.2084
     17 C         137.1214  140.9980  156.1343 C.ar    1  UNL1        0.2027
     18 N         136.6332  139.8206  155.3434 N.ar    1  UNL1       -0.1892
     19 C         137.2562  137.5479  152.6523 C.3     1  UNL1        0.2542
     20 O         137.1036  137.5643  154.1444 O.3     1  UNL1       -0.4560
     21 C         144.7156  140.9800  155.9268 C.ar    1  UNL1        0.0622
     22 C         145.1784  140.5923  154.5537 C.ar    1  UNL1        0.0154
     23 C         146.5350  141.0142  154.0725 C.ar    1  UNL1        0.0013
     24 C         147.4289  141.8239  154.9644 C.ar    1  UNL1        0.0001
     25 C         146.9661  142.2116  156.3376 C.ar    1  UNL1        0.0013
     26 C         145.6095  141.7897  156.8187 C.ar    1  UNL1        0.0154
     27 C         148.7855  142.2458  154.4831 C.ar    1  UNL1        0.0000
     28 C         150.0175  141.6386  155.0860 C.ar    1  UNL1        0.0000
     29 C         151.3741  142.0605  154.6048 C.ar    1  UNL1        0.0015
     30 C         151.4987  143.0897  153.5207 C.ar    1  UNL1        0.0194
     31 C         150.2667  143.6969  152.9178 C.ar    1  UNL1        0.0015
     32 C         148.9101  143.2750  153.3990 C.ar    1  UNL1        0.0000
     33 C         152.8553  143.5116  153.0394 C.2     1  UNL1        0.1052
     34 C         153.5072  144.8386  153.2924 C.2     1  UNL1        0.0820
     35 C         154.8530  144.8278  152.6301 C.2     1  UNL1        0.2877
     36 O         155.8448  145.9531  152.6301 O.2     1  UNL1       -0.2664
     37 N         155.0329  143.4940  151.9677 N.am    1  UNL1       -0.0753
     38 N         153.7982  142.6805  152.2207 N.2     1  UNL1       -0.1557
     39 C         139.3246  137.9491  161.2897 C.3     1  UNL1        0.1183
     40 C         139.1196  138.7605  162.5346 C.ar    1  UNL1        0.0712
     41 N         138.1128  139.8723  162.5478 N.ar    1  UNL1       -0.2471
     42 C         137.9078  140.6837  163.7927 C.ar    1  UNL1        0.0985
     43 C         138.7096  140.3832  165.0243 C.ar    1  UNL1        0.0203
     44 C         139.7164  139.2714  165.0110 C.ar    1  UNL1       -0.0015
     45 C         139.9214  138.4600  163.7662 C.ar    1  UNL1       -0.0069
     46 C         140.9282  137.3481  163.7529 C.3     1  UNL1        0.0323
@<TRIPOS>BOND
     1    19    20    1
     2    20    13    1
     3    13    14   ar
     4    14    15   ar
     5    15     1    1
     6     1     2   am
     7     2     3    2
     8     2     4   am
     9     4    21    1
    10    21    22   ar
    11    22    23   ar
    12    23    24   ar
    13    24    27    1
    14    27    28   ar
    15    28    29   ar
    16    29    30   ar
    17    30    33    1
    18    33    34    2
    19    34    35    1
    20    35    36    2
    21    35    37    1
    22    37    38    2
    23    30    31   ar
    24    31    32   ar
    25    24    25   ar
    26    25    26   ar
    27     4     5   am
    28     5     6    2
    29     5     7    1
    30     7     8    1
    31     8     9    1
    32     9    10    1
    33    10    39    1
    34    39    40    1
    35    40    41   ar
    36    41    42   ar
    37    42    43   ar
    38    43    44   ar
    39    44    45   ar
    40    45    46    1
    41    10    11    1
    42    11    12    1
    43    15    16   ar
    44    16    17   ar
    45    17    18   ar
    46    18    13   ar
    47     7     1    1
    48    45    40   ar
    49    26    21   ar
    50    12     7    1
    51    32    27   ar
    52    38    33    1
@<TRIPOS>MOLECULE
*****
 46 52 0 0 0
SMALL
GASTEIGER

@<TRIPOS>ATOM
      1 N         141.2458  141.2560  159.7179 N.am    1  UNL1       -0.2222
      2 C         140.5578  141.4500  161.0367 C.2     1  UNL1        0.3219
      3 O         139.9800  142.7359  161.5490 O.2     1  UNL1       -0.2512
      4 N         140.5492  140.1322  161.7533 N.am    1  UNL1       -0.1907
      5 C         141.2319  139.1238  160.8774 C.2     1  UNL1        0.2529
      6 O         141.4464  137.6753  161.2023 O.2     1  UNL1       -0.2724
      7 C         141.6624  139.8183  159.6195 C.3     1  UNL1        0.1391
      8 C         142.0301  140.6435  158.4220 C.3     1  UNL1        0.0449
      9 C         142.7506  140.0113  157.2683 C.3     1  UNL1        0.0746
     10 N         143.1034  138.5541  157.3120 N.3     1  UNL1       -0.2676
     11 C         142.7357  137.7289  158.5094 C.3     1  UNL1        0.0746
     12 C         142.0152  138.3611  159.6631 C.3     1  UNL1        0.0449
     13 C         140.6849  143.6064  156.5698 C.ar    1  UNL1        0.2293
     14 C         140.4541  142.5485  157.6078 C.ar    1  UNL1        0.0924
     15 C         141.4767  142.3139  158.6799 C.ar    1  UNL1        0.1453
     16 N         142.7301  143.1372  158.7139 N.ar    1  UNL1       -0.2084
     17 C         142.9610  144.1951  157.6759 C.ar    1  UNL1        0.2027
     18 N         141.9383  144.4297  156.6038 N.ar    1  UNL1       -0.1892
     19 C         138.9209  145.1437  155.4409 C.3     1  UNL1        0.2542
     20 O         139.6624  143.8410  155.4977 O.3     1  UNL1       -0.4560
     21 C         139.9613  139.8691  163.1079 C.ar    1  UNL1        0.0622
     22 C         139.1423  138.6346  163.3431 C.ar    1  UNL1        0.0154
     23 C         138.5543  138.3715  164.6977 C.ar    1  UNL1        0.0013
     24 C         138.7853  139.3428  165.8172 C.ar    1  UNL1        0.0001
     25 C         139.6044  140.5773  165.5820 C.ar    1  UNL1        0.0013
     26 C         140.1923  140.8404  164.2273 C.ar    1  UNL1        0.0154
     27 C         138.1973  139.0796  167.1718 C.ar    1  UNL1        0.0000
     28 C         137.1136  138.0551  167.3329 C.ar    1  UNL1        0.0000
     29 C         136.5256  137.7919  168.6876 C.ar    1  UNL1        0.0015
     30 C         137.0214  138.5534  169.8811 C.ar    1  UNL1        0.0194
     31 C         138.1051  139.5779  169.7200 C.ar    1  UNL1        0.0015
     32 C         138.6931  139.8410  168.3654 C.ar    1  UNL1        0.0000
     33 C         136.4334  138.2902  171.2357 C.2     1  UNL1        0.1052
     34 C         136.4952  136.9934  171.9869 C.2     1  UNL1        0.0820
     35 C         135.7804  137.1794  173.2924 C.2     1  UNL1        0.2877
     36 O         135.6007  136.1366  174.3556 O.2     1  UNL1       -0.2664
     37 N         135.2768  138.5912  173.3482 N.am    1  UNL1       -0.0753
     38 N         135.6804  139.2778  172.0770 N.2     1  UNL1       -0.1557
     39 C         143.8240  137.9219  156.1581 C.3     1  UNL1        0.1183
     40 C         143.3443  136.6152  155.5994 C.ar    1  UNL1        0.0712
     41 N         143.8986  135.3251  156.1272 N.ar    1  UNL1       -0.2471
     42 C         143.4188  134.0183  155.5684 C.ar    1  UNL1        0.0985
     43 C         142.3848  134.0016  154.4819 C.ar    1  UNL1        0.0203
     44 C         141.8305  135.2916  153.9541 C.ar    1  UNL1       -0.0015
     45 C         142.3102  136.5984  154.5128 C.ar    1  UNL1       -0.0069
     46 C         141.7560  137.8884  153.9851 C.3     1  UNL1        0.0323
@<TRIPOS>BOND
     1    19    20    1
     2    20    13    1
     3    13    14   ar
     4    14    15   ar
     5    15     1    1
     6     1     2   am
     7     2     3    2
     8     2     4   am
     9     4    21    1
    10    21    22   ar
    11    22    23   ar
    12    23    24   ar
    13    24    27    1
    14    27    28   ar
    15    28    29   ar
    16    29    30   ar
    17    30    33    1
    18    33    34    2
    19    34    35    1
    20    35    36    2
    21    35    37    1
    22    37    38    2
    23    30    31   ar
    24    31    32   ar
    25    24    25   ar
    26    25    26   ar
    27     4     5   am
    28     5     6    2
    29     5     7    1
    30     7     8    1
    31     8     9    1
    32     9    10    1
    33    10    39    1
    34    39    40    1
    35    40    41   ar
    36    41    42   ar
    37    42    43   ar
    38    43    44   ar
    39    44    45   ar
    40    45    46    1
    41    10    11    1
    42    11    12    1
    43    15    16   ar
    44    16    17   ar
    45    17    18   ar
    46    18    13   ar
    47     7     1    1
    48    45    40   ar
    49    26    21   ar
    50    12     7    1
    51    32    27   ar
    52    38    33    1
@<TRIPOS>MOLECULE
*****
 46 52 0 0 0
SMALL
GASTEIGER

@<TRIPOS>ATOM
      1 N         142.7478  138.6303  156.1566 N.am    1  UNL1       -0.2222
      2 C         142.3029  138.4756  157.5808 C.2     1  UNL1        0.3219
      3 O         141.2319  137.5487  158.0743 O.2     1  UNL1       -0.2512
      4 N         143.1173  139.4108  158.4249 N.am    1  UNL1       -0.1907
      5 C         144.0654  140.1433  157.5224 C.2     1  UNL1        0.2529
      6 O         145.0662  141.1768  157.9471 O.2     1  UNL1       -0.2724
      7 C         143.8371  139.6609  156.1205 C.3     1  UNL1        0.1391
      8 C         143.4980  139.0843  154.7780 C.3     1  UNL1        0.0449
      9 C         144.2304  139.5507  153.5548 C.3     1  UNL1        0.0746
     10 N         145.3017  140.5937  153.6742 N.3     1  UNL1       -0.2676
     11 C         145.6408  141.1703  155.0167 C.3     1  UNL1        0.0746
     12 C         144.9085  140.7039  156.2399 C.3     1  UNL1        0.0449
     13 C         140.5039  137.7098  153.0154 C.ar    1  UNL1        0.2293
     14 C         141.0521  138.4551  154.1961 C.ar    1  UNL1        0.0924
     15 C         142.1997  137.8850  154.9759 C.ar    1  UNL1        0.1453
     16 N         142.7991  136.5697  154.5749 N.ar    1  UNL1       -0.2084
     17 C         142.2510  135.8245  153.3943 C.ar    1  UNL1        0.2027
     18 N         141.1034  136.3946  152.6144 N.ar    1  UNL1       -0.1892
     19 C         138.9330  139.7019  152.4555 C.3     1  UNL1        0.2542
     20 O         139.3564  138.2798  152.2355 O.3     1  UNL1       -0.4560
     21 C         143.0035  139.5831  159.9105 C.ar    1  UNL1        0.0622
     22 C         144.1814  139.2904  160.7920 C.ar    1  UNL1        0.0154
     23 C         144.0675  139.4628  162.2777 C.ar    1  UNL1        0.0013
     24 C         142.7758  139.9278  162.8820 C.ar    1  UNL1        0.0001
     25 C         141.5979  140.2206  162.0006 C.ar    1  UNL1        0.0013
     26 C         141.7118  140.0482  160.5149 C.ar    1  UNL1        0.0154
     27 C         142.6620  140.1002  164.3677 C.ar    1  UNL1        0.0000
     28 C         142.3118  141.4407  164.9426 C.ar    1  UNL1        0.0000
     29 C         142.1980  141.6130  166.4283 C.ar    1  UNL1        0.0015
     30 C         142.4344  140.4448  167.3391 C.ar    1  UNL1        0.0194
     31 C         142.7846  139.1044  166.7642 C.ar    1  UNL1        0.0015
     32 C         142.8984  138.9320  165.2786 C.ar    1  UNL1        0.0000
     33 C         142.3206  140.6172  168.8248 C.2     1  UNL1        0.1052
     34 C         141.4074  141.5726  169.5342 C.2     1  UNL1        0.0820
     35 C         141.6224  141.4103  171.0098 C.2     1  UNL1        0.2877
     36 O         140.9154  142.1703  172.0927 O.2     1  UNL1       -0.2664
     37 N         142.6684  140.3545  171.2125 N.am    1  UNL1       -0.0753
     38 N         143.1000  139.8643  169.8620 N.2     1  UNL1       -0.1557
     39 C         146.0341  141.0601  152.4510 C.3     1  UNL1        0.1183
     40 C         147.2843  141.8769  152.5912 C.ar    1  UNL1        0.0712
     41 N         148.6245  141.2033  152.5888 N.ar    1  UNL1       -0.2471
     42 C         149.8748  142.0202  152.7290 C.ar    1  UNL1        0.0985
     43 C         149.7848  143.5106  152.8716 C.ar    1  UNL1        0.0203
     44 C         148.4445  144.1843  152.8739 C.ar    1  UNL1       -0.0015
     45 C         147.1943  143.3674  152.7337 C.ar    1  UNL1       -0.0069
     46 C         145.8541  144.0411  152.7360 C.3     1  UNL1        0.0323
@<TRIPOS>BOND
     1    19    20    1
     2    20    13    1
     3    13    14   ar
     4    14    15   ar
     5    15     1    1
     6     1     2   am
     7     2     3    2
     8     2     4   am
     9     4    21    1
    10    21    22   ar
    11    22    23   ar
    12    23    24   ar
    13    24    27    1
    14    27    28   ar
    15    28    29   ar
    16    29    30   ar
    17    30    33    1
    18    33    34    2
    19    34    35    1
    20    35    36    2
    21    35    37    1
    22    37    38    2
    23    30    31   ar
    24    31    32   ar
    25    24    25   ar
    26    25    26   ar
    27     4     5   am
    28     5     6    2
    29     5     7    1
    30     7     8    1
    31     8     9    1
    32     9    10    1
    33    10    39    1
    34    39    40    1
    35    40    41   ar
    36    41    42   ar
    37    42    43   ar
    38    43    44   ar
    39    44    45   ar
    40    45    46    1
    41    10    11    1
    42    11    12    1
    43    15    16   ar
    44    16    17   ar
    45    17    18   ar
    46    18    13   ar
    47     7     1    1
    48    45    40   ar
    49    26    21   ar
    50    12     7    1
    51    32    27   ar
    52    38    33    1
@<TRIPOS>MOLECULE
*****
 46 52 0 0 0
SMALL
GASTEIGER

@<TRIPOS>ATOM
      1 N         143.4807  140.0910  156.5000 N.am    1  UNL1       -0.2222
      2 C         143.3703  140.8837  157.7687 C.2     1  UNL1        0.3219
      3 O         143.8233  142.3001  157.9656 O.2     1  UNL1       -0.2512
      4 N         142.7275  140.0113  158.8059 N.am    1  UNL1       -0.1907
      5 C         142.4405  138.6795  158.1783 C.2     1  UNL1        0.2529
      6 O         141.8005  137.5047  158.8565 O.2     1  UNL1       -0.2724
      7 C         142.9060  138.7288  156.7531 C.3     1  UNL1        0.1391
      8 C         143.4163  138.9258  155.3564 C.3     1  UNL1        0.0449
      9 C         143.3234  137.8089  154.3595 C.3     1  UNL1        0.0746
     10 N         142.7203  136.4950  154.7593 N.3     1  UNL1       -0.2676
     11 C         142.2100  136.2979  156.1559 C.3     1  UNL1        0.0746
     12 C         142.3029  137.4148  157.1528 C.3     1  UNL1        0.0449
     13 C         146.1342  141.1064  153.7291 C.ar    1  UNL1        0.2293
     14 C         145.5515  140.6218  155.0236 C.ar    1  UNL1        0.0924
     15 C         144.0633  140.5756  155.2055 C.ar    1  UNL1        0.1453
     16 N         143.1578  141.0138  154.0928 N.ar    1  UNL1       -0.2084
     17 C         143.7403  141.4983  152.7984 C.ar    1  UNL1        0.2027
     18 N         145.2286  141.5446  152.6165 N.ar    1  UNL1       -0.1892
     19 C         148.3509  142.4593  153.6563 C.3     1  UNL1        0.2542
     20 O         147.6224  141.1527  153.5472 O.3     1  UNL1       -0.4560
     21 C         142.4248  140.4021  160.2220 C.ar    1  UNL1        0.0622
     22 C         141.4635  141.5188  160.5028 C.ar    1  UNL1        0.0154
     23 C         141.1608  141.9096  161.9190 C.ar    1  UNL1        0.0013
     24 C         141.8194  141.1838  163.0545 C.ar    1  UNL1        0.0001
     25 C         142.7808  140.0670  162.7738 C.ar    1  UNL1        0.0013
     26 C         143.0834  139.6763  161.3575 C.ar    1  UNL1        0.0154
     27 C         141.5167  141.5746  164.4707 C.ar    1  UNL1        0.0000
     28 C         142.6321  141.7228  165.4626 C.ar    1  UNL1        0.0000
     29 C         142.3294  142.1136  166.8788 C.ar    1  UNL1        0.0015
     30 C         140.9112  142.3562  167.3030 C.ar    1  UNL1        0.0194
     31 C         139.7958  142.2080  166.3111 C.ar    1  UNL1        0.0015
     32 C         140.0984  141.8172  164.8950 C.ar    1  UNL1        0.0000
     33 C         140.6085  142.7470  168.7192 C.2     1  UNL1        0.1052
     34 C         140.8313  141.8974  169.9352 C.2     1  UNL1        0.0820
     35 C         140.3903  142.6814  171.1355 C.2     1  UNL1        0.2877
     36 O         140.4365  142.2133  172.5600 O.2     1  UNL1       -0.2664
     37 N         139.8950  144.0155  170.6616 N.am    1  UNL1       -0.0753
     38 N         140.0298  144.0561  169.1681 N.2     1  UNL1       -0.1557
     39 C         142.6274  135.3781  153.7622 C.3     1  UNL1        0.1183
     40 C         142.3374  133.9813  154.2257 C.ar    1  UNL1        0.0712
     41 N         143.0172  133.4403  155.4484 N.ar    1  UNL1       -0.2471
     42 C         142.7271  132.0434  155.9118 C.ar    1  UNL1        0.0985
     43 C         141.7572  131.1876  155.1524 C.ar    1  UNL1        0.0203
     44 C         141.0773  131.7285  153.9297 C.ar    1  UNL1       -0.0015
     45 C         141.3674  133.1253  153.4663 C.ar    1  UNL1       -0.0069
     46 C         140.6875  133.6662  152.2435 C.3     1  UNL1        0.0323
@<TRIPOS>BOND
     1    19    20    1
     2    20    13    1
     3    13    14   ar
     4    14    15   ar
     5    15     1    1
     6     1     2   am
     7     2     3    2
     8     2     4   am
     9     4    21    1
    10    21    22   ar
    11    22    23   ar
    12    23    24   ar
    13    24    27    1
    14    27    28   ar
    15    28    29   ar
    16    29    30   ar
    17    30    33    1
    18    33    34    2
    19    34    35    1
    20    35    36    2
    21    35    37    1
    22    37    38    2
    23    30    31   ar
    24    31    32   ar
    25    24    25   ar
    26    25    26   ar
    27     4     5   am
    28     5     6    2
    29     5     7    1
    30     7     8    1
    31     8     9    1
    32     9    10    1
    33    10    39    1
    34    39    40    1
    35    40    41   ar
    36    41    42   ar
    37    42    43   ar
    38    43    44   ar
    39    44    45   ar
    40    45    46    1
    41    10    11    1
    42    11    12    1
    43    15    16   ar
    44    16    17   ar
    45    17    18   ar
    46    18    13   ar
    47     7     1    1
    48    45    40   ar
    49    26    21   ar
    50    12     7    1
    51    32    27   ar
    52    38    33    1
@<TRIPOS>MOLECULE
*****
 46 52 0 0 0
SMALL
GASTEIGER

@<TRIPOS>ATOM
      1 N         140.1419  140.8199  160.1899 N.am    1  UNL1       -0.2222
      2 C         140.4573  139.8318  161.2737 C.2     1  UNL1        0.3219
      3 O         140.0206  138.3974  161.3134 O.2     1  UNL1       -0.2512
      4 N         141.2860  140.5303  162.3108 N.am    1  UNL1       -0.1907
      5 C         141.4828  141.9498  161.8679 C.2     1  UNL1        0.2529
      6 O         142.2517  143.0052  162.6062 O.2     1  UNL1       -0.2724
      7 C         140.7757  142.1289  160.5572 C.3     1  UNL1        0.1391
      8 C         140.0268  142.1569  159.2578 C.3     1  UNL1        0.0449
      9 C         139.9645  143.4226  158.4553 C.3     1  UNL1        0.0746
     10 N         140.6510  144.6603  158.9521 N.3     1  UNL1       -0.2676
     11 C         141.3998  144.6322  160.2515 C.3     1  UNL1        0.0746
     12 C         141.4622  143.3665  161.0540 C.3     1  UNL1        0.0449
     13 C         139.1408  139.5286  156.5732 C.ar    1  UNL1        0.2293
     14 C         139.9482  139.8017  157.8075 C.ar    1  UNL1        0.0924
     15 C         139.3344  140.5468  158.9556 C.ar    1  UNL1        0.1453
     16 N         137.9132  141.0187  158.8694 N.ar    1  UNL1       -0.2084
     17 C         137.1058  140.7457  157.6352 C.ar    1  UNL1        0.2027
     18 N         137.7196  140.0006  156.4871 N.ar    1  UNL1       -0.1892
     19 C         139.2588  137.4132  155.0697 C.3     1  UNL1        0.2542
     20 O         139.7545  138.7836  155.4251 O.3     1  UNL1       -0.4560
     21 C         141.8236  139.9168  163.5695 C.ar    1  UNL1        0.0622
     22 C         140.9963  139.9254  164.8207 C.ar    1  UNL1        0.0154
     23 C         141.5338  139.3119  166.0795 C.ar    1  UNL1        0.0013
     24 C         142.8987  138.6899  166.0872 C.ar    1  UNL1        0.0001
     25 C         143.7262  138.6813  164.8360 C.ar    1  UNL1        0.0013
     26 C         143.1885  139.2948  163.5772 C.ar    1  UNL1        0.0154
     27 C         143.4363  138.0764  167.3461 C.ar    1  UNL1        0.0000
     28 C         144.5615  137.0869  167.2770 C.ar    1  UNL1        0.0000
     29 C         145.0991  136.4734  168.5359 C.ar    1  UNL1        0.0015
     30 C         144.5114  136.8495  169.8637 C.ar    1  UNL1        0.0194
     31 C         143.3863  137.8391  169.9328 C.ar    1  UNL1        0.0015
     32 C         142.8487  138.4525  168.6740 C.ar    1  UNL1        0.0000
     33 C         145.0490  136.2360  171.1226 C.2     1  UNL1        0.1052
     34 C         146.1191  136.8164  171.9990 C.2     1  UNL1        0.0820
     35 C         146.3423  135.8735  173.1441 C.2     1  UNL1        0.2877
     36 O         147.3251  136.0608  174.2617 O.2     1  UNL1       -0.2664
     37 N         145.4102  134.7104  172.9754 N.am    1  UNL1       -0.0753
     38 N         144.6109  134.9345  171.7260 N.2     1  UNL1       -0.1557
     39 C         140.5886  145.9260  158.1496 C.3     1  UNL1        0.1183
     40 C         140.9654  145.9128  156.6977 C.ar    1  UNL1        0.0712
     41 N         142.1359  145.0974  156.2340 N.ar    1  UNL1       -0.2471
     42 C         142.5127  145.0842  154.7821 C.ar    1  UNL1        0.0985
     43 C         141.7190  145.8865  153.7940 C.ar    1  UNL1        0.0203
     44 C         140.5485  146.7020  154.2577 C.ar    1  UNL1       -0.0015
     45 C         140.1717  146.7151  155.7096 C.ar    1  UNL1       -0.0069
     46 C         139.0012  147.5306  156.1733 C.3     1  UNL1        0.0323
@<TRIPOS>BOND
     1    19    20    1
     2    20    13    1
     3    13    14   ar
     4    14    15   ar
     5    15     1    1
     6     1     2   am
     7     2     3    2
     8     2     4   am
     9     4    21    1
    10    21    22   ar
    11    22    23   ar
    12    23    24   ar
    13    24    27    1
    14    27    28   ar
    15    28    29   ar
    16    29    30   ar
    17    30    33    1
    18    33    34    2
    19    34    35    1
    20    35    36    2
    21    35    37    1
    22    37    38    2
    23    30    31   ar
    24    31    32   ar
    25    24    25   ar
    26    25    26   ar
    27     4     5   am
    28     5     6    2
    29     5     7    1
    30     7     8    1
    31     8     9    1
    32     9    10    1
    33    10    39    1
    34    39    40    1
    35    40    41   ar
    36    41    42   ar
    37    42    43   ar
    38    43    44   ar
    39    44    45   ar
    40    45    46    1
    41    10    11    1
    42    11    12    1
    43    15    16   ar
    44    16    17   ar
    45    17    18   ar
    46    18    13   ar
    47     7     1    1
    48    45    40   ar
    49    26    21   ar
    50    12     7    1
    51    32    27   ar
    52    38    33    1
