@<TRIPOS>MOLECULE
*****
 29 32 0 0 0
SMALL
GASTEIGER

@<TRIPOS>ATOM
      1 C         140.1259  138.8537  162.9002 C.2     1  UNL1        0.3270
      2 N         139.6368  139.2382  161.5353 N.2     1  UNL1       -0.0380
      3 C         139.0293  140.6065  161.6290 C.2     1  UNL1        0.2637
      4 C         138.3873  141.4921  160.6026 C.2     1  UNL1        0.2821
      5 N         137.8589  142.8389  160.9990 N.2     1  UNL1       -0.0268
      6 C         137.9725  143.3000  162.4219 C.2     1  UNL1        0.3760
      7 N         137.5464  144.5663  163.1036 N.2     1  UNL1       -0.0306
      8 C         137.9250  144.4633  164.5513 C.2     1  UNL1        0.2361
      9 C         138.5852  143.1333  164.7644 C.2     1  UNL1        0.0583
     10 C         138.6145  142.4143  163.4483 C.2     1  UNL1        0.1203
     11 C         139.1429  141.0676  163.0518 C.3     1  UNL1        0.2596
     12 N         139.8206  139.9843  163.8375 N.pl3   1  UNL1       -0.1887
     13 C         140.1375  140.0246  165.3030 C.3     1  UNL1        0.1606
     14 C         141.5422  140.2857  165.7598 C.3     1  UNL1        0.0480
     15 C         141.8590  140.3260  167.2254 C.3     1  UNL1        0.0198
     16 C         140.7712  140.1051  168.2343 C.3     1  UNL1        0.0545
     17 C         139.3665  139.8439  167.7775 C.3     1  UNL1        0.0198
     18 C         139.0496  139.8037  166.3119 C.3     1  UNL1        0.0480
     19 N         141.0880  140.1453  169.6998 N.3     1  UNL1       -0.2914
     20 H         141.9563  139.6256  169.8277 H       1  UNL1        0.1235
     21 C         141.2665  141.4637  170.3927 C.3     1  UNL1        0.1731
     22 C         140.7049  142.7137  169.7825 C.3     1  UNL1        0.4118
     23 F         140.1434  143.9636  169.1723 F       1  UNL1       -0.1685
     24 F         139.3333  142.3252  170.2491 F       1  UNL1       -0.1685
     25 F         142.0766  143.1021  169.3158 F       1  UNL1       -0.1685
     26 C         140.5059  136.9083  164.5798 C.3     1  UNL1        0.0450
     27 C         140.8016  137.5649  163.2639 C.3     1  UNL1        0.2165
     28 O         141.7729  136.9326  162.3117 O.3     1  UNL1       -0.3737
     29 H         141.8485  137.4811  161.5152 H       1  UNL1        0.2111
@<TRIPOS>BOND
     1    27    26    1
     2    27    28    1
     3    27     1    1
     4     1     2    2
     5     2     3    1
     6     3     4    2
     7     4     5    1
     8     5     6    2
     9     6     7    1
    10     7     8    2
    11     8     9    1
    12     9    10    2
    13    10    11    1
    14    11    12    1
    15    13    12    1
    16    13    14    1
    17    14    15    1
    18    15    16    1
    19    16    19    1
    20    19    21    1
    21    21    22    1
    22    22    23    1
    23    22    24    1
    24    22    25    1
    25    16    17    1
    26    17    18    1
    27    12     1    1
    28    18    13    1
    29    11     3    1
    30    10     6    1
    31    28    29    1
    32    19    20    1
@<TRIPOS>MOLECULE
*****
 29 32 0 0 0
SMALL
GASTEIGER

@<TRIPOS>ATOM
      1 C         143.7790  141.8872  162.9177 C.2     1  UNL1        0.3270
      2 N         143.5039  142.4152  161.5409 N.2     1  UNL1       -0.0380
      3 C         142.1489  143.0587  161.5534 C.2     1  UNL1        0.2637
      4 C         141.3545  143.7464  160.4831 C.2     1  UNL1        0.2821
      5 N         139.9977  144.3038  160.7971 N.2     1  UNL1       -0.0268
      6 C         139.4355  144.1735  162.1816 C.2     1  UNL1        0.3760
      7 N         138.1364  144.6205  162.7835 N.2     1  UNL1       -0.0306
      8 C         138.1279  144.2090  164.2259 C.2     1  UNL1        0.2361
      9 C         139.4219  143.5077  164.5155 C.2     1  UNL1        0.0583
     10 C         140.2300  143.4857  163.2521 C.2     1  UNL1        0.1203
     11 C         141.5867  142.9283  162.9380 C.3     1  UNL1        0.2596
     12 N         142.5942  142.2043  163.7811 N.pl3   1  UNL1       -0.1887
     13 C         142.4433  141.8582  165.2328 C.3     1  UNL1        0.1606
     14 C         143.2779  142.5610  166.2621 C.3     1  UNL1        0.0480
     15 C         143.1270  142.2149  167.7138 C.3     1  UNL1        0.0198
     16 C         142.1414  141.1660  168.1362 C.3     1  UNL1        0.0545
     17 C         141.3068  140.4632  167.1069 C.3     1  UNL1        0.0198
     18 C         141.4577  140.8093  165.6552 C.3     1  UNL1        0.0480
     19 N         141.9905  140.8199  169.5879 N.3     1  UNL1       -0.2914
     20 H         142.9043  140.5026  169.9115 H       1  UNL1        0.1235
     21 C         141.5232  141.8601  170.5623 C.3     1  UNL1        0.1731
     22 C         140.8583  143.1092  170.0645 C.3     1  UNL1        0.4118
     23 F         140.1933  144.3581  169.5667 F       1  UNL1       -0.1685
     24 F         139.5886  142.3431  169.8384 F       1  UNL1       -0.1685
     25 F         142.1280  143.8753  170.2905 F       1  UNL1       -0.1685
     26 C         144.9236  139.7907  163.9398 C.3     1  UNL1        0.0450
     27 C         145.0210  141.1683  163.3544 C.3     1  UNL1        0.2165
     28 O         146.3604  141.8270  163.2055 O.3     1  UNL1       -0.3737
     29 H         146.2462  142.7070  162.8137 H       1  UNL1        0.2111
@<TRIPOS>BOND
     1    27    26    1
     2    27    28    1
     3    27     1    1
     4     1     2    2
     5     2     3    1
     6     3     4    2
     7     4     5    1
     8     5     6    2
     9     6     7    1
    10     7     8    2
    11     8     9    1
    12     9    10    2
    13    10    11    1
    14    11    12    1
    15    13    12    1
    16    13    14    1
    17    14    15    1
    18    15    16    1
    19    16    19    1
    20    19    21    1
    21    21    22    1
    22    22    23    1
    23    22    24    1
    24    22    25    1
    25    16    17    1
    26    17    18    1
    27    12     1    1
    28    18    13    1
    29    11     3    1
    30    10     6    1
    31    28    29    1
    32    19    20    1
@<TRIPOS>MOLECULE
*****
 29 32 0 0 0
SMALL
GASTEIGER

@<TRIPOS>ATOM
      1 C         141.1444  139.2900  162.4434 C.2     1  UNL1        0.3270
      2 N         141.5254  139.7353  161.0627 N.2     1  UNL1       -0.0380
      3 C         142.1918  141.0746  161.1749 C.2     1  UNL1        0.2637
      4 C         142.7744  141.9952  160.1440 C.2     1  UNL1        0.2821
      5 N         143.3879  143.2983  160.5632 N.2     1  UNL1       -0.0268
      6 C         143.4187  143.6806  162.0133 C.2     1  UNL1        0.3760
      7 N         143.9526  144.8906  162.7211 N.2     1  UNL1       -0.0306
      8 C         143.6999  144.7176  164.1895 C.2     1  UNL1        0.2361
      9 C         143.0098  143.4008  164.3892 C.2     1  UNL1        0.0583
     10 C         142.8361  142.7599  163.0442 C.2     1  UNL1        0.1203
     11 C         142.2226  141.4569  162.6250 C.3     1  UNL1        0.2596
     12 N         141.5753  140.3540  163.4090 N.pl3   1  UNL1       -0.1887
     13 C         141.3912  140.3208  164.8973 C.3     1  UNL1        0.1606
     14 C         142.5348  139.9303  165.7859 C.3     1  UNL1        0.0480
     15 C         142.3506  139.8972  167.2743 C.3     1  UNL1        0.0198
     16 C         141.0230  140.2546  167.8739 C.3     1  UNL1        0.0545
     17 C         139.8794  140.6451  166.9852 C.3     1  UNL1        0.0198
     18 C         140.0635  140.6782  165.4969 C.3     1  UNL1        0.0480
     19 N         140.8389  140.2214  169.3621 N.3     1  UNL1       -0.2914
     20 H         141.3775  139.4272  169.7078 H       1  UNL1        0.1235
     21 C         141.2329  141.4064  170.1932 C.3     1  UNL1        0.1731
     22 C         140.7485  142.7768  169.8225 C.3     1  UNL1        0.4118
     23 F         140.2641  144.1472  169.4519 F       1  UNL1       -0.1685
     24 F         142.1438  143.1644  169.4318 F       1  UNL1       -0.1685
     25 F         139.3530  142.3892  170.2133 F       1  UNL1       -0.1685
     26 C         138.9760  137.9954  163.0530 C.3     1  UNL1        0.0450
     27 C         140.4538  138.0062  162.7966 C.3     1  UNL1        0.2165
     28 O         141.2411  136.7331  162.8933 O.3     1  UNL1       -0.3737
     29 H         142.1741  136.9144  162.6995 H       1  UNL1        0.2111
@<TRIPOS>BOND
     1    27    26    1
     2    27    28    1
     3    27     1    1
     4     1     2    2
     5     2     3    1
     6     3     4    2
     7     4     5    1
     8     5     6    2
     9     6     7    1
    10     7     8    2
    11     8     9    1
    12     9    10    2
    13    10    11    1
    14    11    12    1
    15    13    12    1
    16    13    14    1
    17    14    15    1
    18    15    16    1
    19    16    19    1
    20    19    21    1
    21    21    22    1
    22    22    23    1
    23    22    24    1
    24    22    25    1
    25    16    17    1
    26    17    18    1
    27    12     1    1
    28    18    13    1
    29    11     3    1
    30    10     6    1
    31    28    29    1
    32    19    20    1
@<TRIPOS>MOLECULE
*****
 29 32 0 0 0
SMALL
GASTEIGER

@<TRIPOS>ATOM
      1 C         139.1901  141.5754  163.2746 C.2     1  UNL1        0.3270
      2 N         139.7508  141.3999  161.8945 N.2     1  UNL1       -0.0380
      3 C         141.1259  140.8145  162.0238 C.2     1  UNL1        0.2637
      4 C         142.1520  140.4270  161.0008 C.2     1  UNL1        0.2821
      5 N         143.4674  139.8533  161.4377 N.2     1  UNL1       -0.0268
      6 C         143.7564  139.6671  162.8978 C.2     1  UNL1        0.3760
      7 N         144.9544  139.1301  163.6232 N.2     1  UNL1       -0.0306
      8 C         144.6686  139.1858  165.0947 C.2     1  UNL1        0.2361
      9 C         143.2940  139.7572  165.2786 C.2     1  UNL1        0.0583
     10 C         142.7302  140.0546  163.9208 C.2     1  UNL1        0.1203
     11 C         141.4149  140.6283  163.4839 C.3     1  UNL1        0.2596
     12 N         140.2185  141.0986  164.2569 N.pl3   1  UNL1       -0.1887
     13 C         140.0757  141.0931  165.7500 C.3     1  UNL1        0.1606
     14 C         139.5156  139.8877  166.4454 C.3     1  UNL1        0.0480
     15 C         139.3728  139.8822  167.9386 C.3     1  UNL1        0.0198
     16 C         139.7900  141.0820  168.7364 C.3     1  UNL1        0.0545
     17 C         140.3500  142.2873  168.0410 C.3     1  UNL1        0.0198
     18 C         140.4929  142.2929  166.5479 C.3     1  UNL1        0.0480
     19 N         139.6471  141.0764  170.2295 N.3     1  UNL1       -0.2914
     20 H         138.7745  140.5921  170.4400 H       1  UNL1        0.1235
     21 C         140.7084  140.4466  171.0822 C.3     1  UNL1        0.1731
     22 C         142.1497  140.5406  170.6771 C.3     1  UNL1        0.4118
     23 F         143.5909  140.6346  170.2720 F       1  UNL1       -0.1685
     24 F         142.1019  139.1265  170.1791 F       1  UNL1       -0.1685
     25 F         142.1975  141.9548  171.1751 F       1  UNL1       -0.1685
     26 C         137.7248  143.4334  164.3474 C.3     1  UNL1        0.0450
     27 C         137.8382  142.1304  163.6129 C.3     1  UNL1        0.2165
     28 O         136.5999  141.3824  163.2169 O.3     1  UNL1       -0.3737
     29 H         136.8487  140.5672  162.7539 H       1  UNL1        0.2111
@<TRIPOS>BOND
     1    27    26    1
     2    27    28    1
     3    27     1    1
     4     1     2    2
     5     2     3    1
     6     3     4    2
     7     4     5    1
     8     5     6    2
     9     6     7    1
    10     7     8    2
    11     8     9    1
    12     9    10    2
    13    10    11    1
    14    11    12    1
    15    13    12    1
    16    13    14    1
    17    14    15    1
    18    15    16    1
    19    16    19    1
    20    19    21    1
    21    21    22    1
    22    22    23    1
    23    22    24    1
    24    22    25    1
    25    16    17    1
    26    17    18    1
    27    12     1    1
    28    18    13    1
    29    11     3    1
    30    10     6    1
    31    28    29    1
    32    19    20    1
@<TRIPOS>MOLECULE
*****
 29 32 0 0 0
SMALL
GASTEIGER

@<TRIPOS>ATOM
      1 C         142.1100  143.3804  162.9247 C.2     1  UNL1        0.3270
      2 N         142.0824  142.8791  161.5112 N.2     1  UNL1       -0.0380
      3 C         141.7839  141.4095  161.5463 C.2     1  UNL1        0.2637
      4 C         141.6347  140.3894  160.4569 C.2     1  UNL1        0.2821
      5 N         141.3286  138.9621  160.8025 N.2     1  UNL1       -0.0268
      6 C         141.1716  138.5552  162.2377 C.2     1  UNL1        0.3760
      7 N         140.8713  137.2328  162.8789 N.2     1  UNL1       -0.0306
      8 C         140.8348  137.4358  164.3646 C.2     1  UNL1        0.2361
      9 C         141.1127  138.8836  164.6417 C.2     1  UNL1        0.0583
     10 C         141.3209  139.5754  163.3272 C.2     1  UNL1        0.1203
     11 C         141.6270  141.0025  162.9815 C.3     1  UNL1        0.2596
     12 N         141.8285  142.2206  163.8334 N.pl3   1  UNL1       -0.1887
     13 C         141.7605  142.2702  165.3310 C.3     1  UNL1        0.1606
     14 C         142.9317  141.8153  166.1504 C.3     1  UNL1        0.0480
     15 C         142.8636  141.8650  167.6481 C.3     1  UNL1        0.0198
     16 C         141.6245  142.3694  168.3263 C.3     1  UNL1        0.0545
     17 C         140.4533  142.8243  167.5068 C.3     1  UNL1        0.0198
     18 C         140.5213  142.7747  166.0092 C.3     1  UNL1        0.0480
     19 N         141.5565  142.4190  169.8239 N.3     1  UNL1       -0.2914
     20 H         141.1366  143.3154  170.0700 H       1  UNL1        0.1235
     21 C         140.7988  141.3650  170.5756 C.3     1  UNL1        0.1731
     22 C         139.7083  140.5943  169.8923 C.3     1  UNL1        0.4118
     23 F         138.6178  139.8236  169.2091 F       1  UNL1       -0.1685
     24 F         138.7293  141.6789  170.2315 F       1  UNL1       -0.1685
     25 F         140.6874  139.5096  169.5532 F       1  UNL1       -0.1685
     26 C         143.6363  145.1312  164.0887 C.3     1  UNL1        0.0450
     27 C         142.3729  144.7933  163.3541 C.3     1  UNL1        0.2165
     28 O         141.3724  145.8684  163.0489 O.3     1  UNL1       -0.3737
     29 H         140.6195  145.4838  162.5733 H       1  UNL1        0.2111
@<TRIPOS>BOND
     1    27    26    1
     2    27    28    1
     3    27     1    1
     4     1     2    2
     5     2     3    1
     6     3     4    2
     7     4     5    1
     8     5     6    2
     9     6     7    1
    10     7     8    2
    11     8     9    1
    12     9    10    2
    13    10    11    1
    14    11    12    1
    15    13    12    1
    16    13    14    1
    17    14    15    1
    18    15    16    1
    19    16    19    1
    20    19    21    1
    21    21    22    1
    22    22    23    1
    23    22    24    1
    24    22    25    1
    25    16    17    1
    26    17    18    1
    27    12     1    1
    28    18    13    1
    29    11     3    1
    30    10     6    1
    31    28    29    1
    32    19    20    1
@<TRIPOS>MOLECULE
*****
 29 32 0 0 0
SMALL
GASTEIGER

@<TRIPOS>ATOM
      1 C         141.5036  143.5652  162.9834 C.2     1  UNL1        0.3270
      2 N         141.1491  143.1168  161.5966 N.2     1  UNL1       -0.0380
      3 C         140.6365  141.7095  161.6813 C.2     1  UNL1        0.2637
      4 C         140.1402  140.7574  160.6340 C.2     1  UNL1        0.2821
      5 N         139.6817  139.3839  161.0257 N.2     1  UNL1       -0.0268
      6 C         139.7195  138.9627  162.4649 C.2     1  UNL1        0.3760
      7 N         139.3352  137.6830  163.1465 N.2     1  UNL1       -0.0306
      8 C         139.5939  137.8444  164.6152 C.2     1  UNL1        0.2361
      9 C         140.1382  139.2238  164.8412 C.2     1  UNL1        0.0583
     10 C         140.2158  139.9150  163.5122 C.2     1  UNL1        0.1203
     11 C         140.6743  141.2884  163.1204 C.3     1  UNL1        0.2596
     12 N         141.2102  142.4352  163.9252 N.pl3   1  UNL1       -0.1887
     13 C         141.4165  142.4496  165.4108 C.3     1  UNL1        0.1606
     14 C         140.2686  142.7620  166.3244 C.3     1  UNL1        0.0480
     15 C         140.4750  142.7763  167.8102 C.3     1  UNL1        0.0198
     16 C         141.8292  142.4783  168.3822 C.3     1  UNL1        0.0545
     17 C         142.9771  142.1659  167.4685 C.3     1  UNL1        0.0198
     18 C         142.7708  142.1515  165.9829 C.3     1  UNL1        0.0480
     19 N         142.0355  142.4926  169.8678 N.3     1  UNL1       -0.2914
     20 H         141.5046  143.2842  170.2312 H       1  UNL1        0.1235
     21 C         141.6501  141.2987  170.6901 C.3     1  UNL1        0.1731
     22 C         142.0837  139.9260  170.2685 C.3     1  UNL1        0.4118
     23 F         142.5174  138.5534  169.8469 F       1  UNL1       -0.1685
     24 F         143.4935  140.2494  170.6657 F       1  UNL1       -0.1685
     25 F         140.6738  139.6026  169.8713 F       1  UNL1       -0.1685
     26 C         143.4951  145.0426  163.7587 C.3     1  UNL1        0.0450
     27 C         142.0549  144.9079  163.3618 C.3     1  UNL1        0.2165
     28 O         141.1658  146.1159  163.3434 O.3     1  UNL1       -0.3737
     29 H         140.2732  145.8562  163.0665 H       1  UNL1        0.2111
@<TRIPOS>BOND
     1    27    26    1
     2    27    28    1
     3    27     1    1
     4     1     2    2
     5     2     3    1
     6     3     4    2
     7     4     5    1
     8     5     6    2
     9     6     7    1
    10     7     8    2
    11     8     9    1
    12     9    10    2
    13    10    11    1
    14    11    12    1
    15    13    12    1
    16    13    14    1
    17    14    15    1
    18    15    16    1
    19    16    19    1
    20    19    21    1
    21    21    22    1
    22    22    23    1
    23    22    24    1
    24    22    25    1
    25    16    17    1
    26    17    18    1
    27    12     1    1
    28    18    13    1
    29    11     3    1
    30    10     6    1
    31    28    29    1
    32    19    20    1
@<TRIPOS>MOLECULE
*****
 29 32 0 0 0
SMALL
GASTEIGER

@<TRIPOS>ATOM
      1 C         139.1054  140.0013  166.8642 C.2     1  UNL1        0.3270
      2 N         138.6263  139.4022  168.1532 N.2     1  UNL1       -0.0380
      3 C         139.4048  140.0276  169.2726 C.2     1  UNL1        0.2637
      4 C         139.3633  139.8270  170.7585 C.2     1  UNL1        0.2821
      5 N         140.2821  140.6119  171.6473 N.2     1  UNL1       -0.0268
      6 C         141.2423  141.5975  171.0500 C.2     1  UNL1        0.3760
      7 N         142.2612  142.5076  171.6692 N.2     1  UNL1       -0.0306
      8 C         142.9323  143.2708  170.5660 C.2     1  UNL1        0.2361
      9 C         142.3282  142.8323  169.2649 C.2     1  UNL1        0.0583
     10 C         141.2837  141.7981  169.5640 C.2     1  UNL1        0.1203
     11 C         140.3649  141.0132  168.6754 C.3     1  UNL1        0.2596
     12 N         140.1799  140.9969  167.1869 N.pl3   1  UNL1       -0.1887
     13 C         140.9365  141.8300  166.1952 C.3     1  UNL1        0.1606
     14 C         140.2966  143.0463  165.5943 C.3     1  UNL1        0.0480
     15 C         141.0533  143.8794  164.6026 C.3     1  UNL1        0.0198
     16 C         142.4499  143.4962  164.2118 C.3     1  UNL1        0.0545
     17 C         143.0898  142.2799  164.8128 C.3     1  UNL1        0.0198
     18 C         142.3332  141.4468  165.8044 C.3     1  UNL1        0.0480
     19 N         143.2065  144.3292  163.2202 N.3     1  UNL1       -0.2914
     20 H         143.4596  145.1954  163.6956 H       1  UNL1        0.1235
     21 C         144.4613  143.7958  162.5950 C.3     1  UNL1        0.1731
     22 C         144.3772  142.8473  161.4359 C.3     1  UNL1        0.4118
     23 F         144.2931  141.8989  160.2769 F       1  UNL1       -0.1685
     24 F         143.2465  143.6487  160.8622 F       1  UNL1       -0.1685
     25 F         145.5080  142.0458  162.0097 F       1  UNL1       -0.1685
     26 C         138.9877  138.3668  164.8482 C.3     1  UNL1        0.0450
     27 C         138.5988  139.6640  165.4932 C.3     1  UNL1        0.2165
     28 O         137.7034  140.6238  164.7673 O.3     1  UNL1       -0.3737
     29 H         137.5518  141.4060  165.3205 H       1  UNL1        0.2111
@<TRIPOS>BOND
     1    27    26    1
     2    27    28    1
     3    27     1    1
     4     1     2    2
     5     2     3    1
     6     3     4    2
     7     4     5    1
     8     5     6    2
     9     6     7    1
    10     7     8    2
    11     8     9    1
    12     9    10    2
    13    10    11    1
    14    11    12    1
    15    13    12    1
    16    13    14    1
    17    14    15    1
    18    15    16    1
    19    16    19    1
    20    19    21    1
    21    21    22    1
    22    22    23    1
    23    22    24    1
    24    22    25    1
    25    16    17    1
    26    17    18    1
    27    12     1    1
    28    18    13    1
    29    11     3    1
    30    10     6    1
    31    28    29    1
    32    19    20    1
@<TRIPOS>MOLECULE
*****
 29 32 0 0 0
SMALL
GASTEIGER

@<TRIPOS>ATOM
      1 C         139.3417  139.2527  166.5643 C.2     1  UNL1        0.3270
      2 N         138.4856  139.3377  167.7931 N.2     1  UNL1       -0.0380
      3 C         139.2386  140.1180  168.8296 C.2     1  UNL1        0.2637
      4 C         138.8917  140.5181  170.2329 C.2     1  UNL1        0.2821
      5 N         139.8663  141.3154  171.0482 N.2     1  UNL1       -0.0268
      6 C         141.1877  141.7126  170.4599 C.2     1  UNL1        0.3760
      7 N         142.3412  142.4921  171.0183 N.2     1  UNL1       -0.0306
      8 C         143.4010  142.5738  169.9599 C.2     1  UNL1        0.2361
      9 C         142.9025  141.8447  168.7475 C.2     1  UNL1        0.0583
     10 C         141.5346  141.3125  169.0565 C.2     1  UNL1        0.1203
     11 C         140.5600  140.5152  168.2413 C.3     1  UNL1        0.2596
     12 N         140.6237  139.9804  166.8413 N.pl3   1  UNL1       -0.1887
     13 C         141.7685  140.1445  165.8861 C.3     1  UNL1        0.1606
     14 C         142.7168  139.0066  165.6493 C.3     1  UNL1        0.0480
     15 C         143.8616  139.1708  164.6940 C.3     1  UNL1        0.0198
     16 C         144.0581  140.4727  163.9755 C.3     1  UNL1        0.0545
     17 C         143.1098  141.6106  164.2123 C.3     1  UNL1        0.0198
     18 C         141.9650  141.4465  165.1675 C.3     1  UNL1        0.0480
     19 N         145.2028  140.6368  163.0203 N.3     1  UNL1       -0.2914
     20 H         145.0084  140.0334  162.2213 H       1  UNL1        0.1235
     21 C         145.5313  141.9927  162.4692 C.3     1  UNL1        0.1731
     22 C         144.6630  142.6016  161.4083 C.3     1  UNL1        0.4118
     23 F         143.7947  143.2104  160.3475 F       1  UNL1       -0.1685
     24 F         144.7795  143.9377  162.0798 F       1  UNL1       -0.1685
     25 F         144.5465  141.2653  160.7367 F       1  UNL1       -0.1685
     26 C         138.6668  139.3682  164.0581 C.3     1  UNL1        0.0450
     27 C         138.9793  138.5614  165.2834 C.3     1  UNL1        0.2165
     28 O         138.9293  137.0633  165.2279 O.3     1  UNL1       -0.3737
     29 H         139.1560  136.6997  166.0981 H       1  UNL1        0.2111
@<TRIPOS>BOND
     1    27    26    1
     2    27    28    1
     3    27     1    1
     4     1     2    2
     5     2     3    1
     6     3     4    2
     7     4     5    1
     8     5     6    2
     9     6     7    1
    10     7     8    2
    11     8     9    1
    12     9    10    2
    13    10    11    1
    14    11    12    1
    15    13    12    1
    16    13    14    1
    17    14    15    1
    18    15    16    1
    19    16    19    1
    20    19    21    1
    21    21    22    1
    22    22    23    1
    23    22    24    1
    24    22    25    1
    25    16    17    1
    26    17    18    1
    27    12     1    1
    28    18    13    1
    29    11     3    1
    30    10     6    1
    31    28    29    1
    32    19    20    1
@<TRIPOS>MOLECULE
*****
 29 32 0 0 0
SMALL
GASTEIGER

@<TRIPOS>ATOM
      1 C         139.1497  139.1865  166.7081 C.2     1  UNL1        0.3270
      2 N         138.4258  139.3878  168.0063 N.2     1  UNL1       -0.0380
      3 C         139.3130  140.1891  168.9124 C.2     1  UNL1        0.2637
      4 C         139.1269  140.6890  170.3142 C.2     1  UNL1        0.2821
      5 N         140.2129  141.4829  170.9779 N.2     1  UNL1       -0.0268
      6 C         141.4851  141.7769  170.2395 C.2     1  UNL1        0.3760
      7 N         142.7224  142.5287  170.6317 N.2     1  UNL1       -0.0306
      8 C         143.6732  142.4933  169.4721 C.2     1  UNL1        0.2361
      9 C         143.0236  141.7197  168.3633 C.2     1  UNL1        0.0583
     10 C         141.6712  141.2769  168.8375 C.2     1  UNL1        0.1203
     11 C         140.5852  140.4830  168.1740 C.3     1  UNL1        0.2596
     12 N         140.4842  139.8634  166.8117 N.pl3   1  UNL1       -0.1887
     13 C         141.5336  139.9121  165.7409 C.3     1  UNL1        0.1606
     14 C         141.4978  140.9958  164.7045 C.3     1  UNL1        0.0480
     15 C         142.5472  141.0445  163.6337 C.3     1  UNL1        0.0198
     16 C         143.6323  140.0095  163.5995 C.3     1  UNL1        0.0545
     17 C         143.6681  138.9258  164.6360 C.3     1  UNL1        0.0198
     18 C         142.6188  138.8771  165.7067 C.3     1  UNL1        0.0480
     19 N         144.6816  140.0582  162.5288 N.3     1  UNL1       -0.2914
     20 H         145.4805  139.5269  162.8750 H       1  UNL1        0.1235
     21 C         144.3770  139.5366  161.1558 C.3     1  UNL1        0.1731
     22 C         143.3745  138.4351  160.9773 C.3     1  UNL1        0.4118
     23 F         142.3719  137.3338  160.7988 F       1  UNL1       -0.1685
     24 F         142.3528  139.4378  160.5292 F       1  UNL1       -0.1685
     25 F         144.3962  137.4325  161.4255 F       1  UNL1       -0.1685
     26 C         138.3835  139.1643  164.2256 C.3     1  UNL1        0.0450
     27 C         138.6301  138.4396  165.5156 C.3     1  UNL1        0.2165
     28 O         138.3571  136.9678  165.6130 O.3     1  UNL1       -0.3737
     29 H         138.5680  136.6585  166.5079 H       1  UNL1        0.2111
@<TRIPOS>BOND
     1    27    26    1
     2    27    28    1
     3    27     1    1
     4     1     2    2
     5     2     3    1
     6     3     4    2
     7     4     5    1
     8     5     6    2
     9     6     7    1
    10     7     8    2
    11     8     9    1
    12     9    10    2
    13    10    11    1
    14    11    12    1
    15    13    12    1
    16    13    14    1
    17    14    15    1
    18    15    16    1
    19    16    19    1
    20    19    21    1
    21    21    22    1
    22    22    23    1
    23    22    24    1
    24    22    25    1
    25    16    17    1
    26    17    18    1
    27    12     1    1
    28    18    13    1
    29    11     3    1
    30    10     6    1
    31    28    29    1
    32    19    20    1
