@<TRIPOS>MOLECULE
*****
 39 43 0 0 0
SMALL
GASTEIGER

@<TRIPOS>ATOM
      1 N         139.8112  139.1357  162.3349 N.pl3   1  UNL1       -0.2598
      2 C         138.7346  138.1782  162.7520 C.2     1  UNL1        0.1681
      3 N         138.3176  138.0991  164.1907 N.2     1  UNL1       -0.2278
      4 C         138.9772  138.9774  165.2122 C.ar    1  UNL1        0.0806
      5 C         138.5601  138.8983  166.6509 C.ar    1  UNL1        0.0146
      6 C         139.2197  139.7766  167.6724 C.ar    1  UNL1       -0.0203
      7 C         138.8026  139.6975  169.1111 C.3     1  UNL1        0.0311
      8 C         140.2963  140.7342  167.2551 C.ar    1  UNL1       -0.0018
      9 C         140.7133  140.8133  165.8165 C.ar    1  UNL1       -0.0009
     10 C         140.0537  139.9350  164.7950 C.ar    1  UNL1        0.0225
     11 C         140.4707  140.0141  163.3563 C.3     1  UNL1        0.1793
     12 C         140.9559  141.6126  168.2766 C.ar    1  UNL1        0.0302
     13 C         140.2432  142.8270  168.7938 C.ar    1  UNL1        0.0388
     14 C         140.9028  143.7054  169.8152 C.ar    1  UNL1        0.1338
     15 O         140.1903  144.9198  170.3324 O.3     1  UNL1       -0.5055
     16 C         142.2750  143.3694  170.3196 C.ar    1  UNL1        0.0389
     17 C         142.9875  142.1550  169.8024 C.ar    1  UNL1        0.0327
     18 C         142.3280  141.2766  168.7809 C.ar    1  UNL1        0.1403
     19 F         143.0405  140.0622  168.2638 F       1  UNL1       -0.2042
     20 H         139.3331  145.1297  170.0174 H       1  UNL1        0.2922
     21 C         139.3265  141.2648  157.6198 C.3     1  UNL1        0.0311
     22 C         139.9859  140.2795  158.5386 C.ar    1  UNL1       -0.0198
     23 C         141.0623  139.3733  158.0187 C.ar    1  UNL1        0.0072
     24 C         141.7217  138.3879  158.9376 C.ar    1  UNL1        0.0586
     25 CL        142.7980  137.4817  158.4178 Cl      1  UNL1       -0.0822
     26 C         141.3046  138.3087  160.3763 C.ar    1  UNL1        0.0263
     27 C         140.2282  139.2149  160.8961 C.ar    1  UNL1        0.0540
     28 C         139.5689  140.2003  159.9773 C.ar    1  UNL1        0.0107
     29 C         141.5474  140.9716  162.9391 C.2     1  UNL1        0.2485
     30 O         141.1867  142.3575  162.4926 O.2     1  UNL1       -0.2727
     31 N         142.9846  140.5433  162.9683 N.am    1  UNL1       -0.2748
     32 C         143.3452  139.1574  163.4148 C.3     1  UNL1        0.1150
     33 C         144.0612  141.5008  162.5511 C.3     1  UNL1        0.1091
     34 C         144.0572  142.9074  163.0722 C.3     1  UNL1        0.0741
     35 C         144.1911  143.3156  164.5093 C.3     1  UNL1        0.0189
     36 C         144.1351  144.8132  164.5729 C.3     1  UNL1        0.0185
     37 C         143.9667  145.3306  163.1750 C.3     1  UNL1        0.0686
     38 N         143.9185  144.1527  162.2476 N.3     1  UNL1       -0.2972
     39 H         144.6836  144.2098  161.5755 H       1  UNL1        0.1233
@<TRIPOS>BOND
     1    21    22    1
     2    22    23   ar
     3    23    24   ar
     4    24    25    1
     5    24    26   ar
     6    26    27   ar
     7    27     1    1
     8     1     2    1
     9     2     3    2
    10     3     4    1
    11     4     5   ar
    12     5     6   ar
    13     6     7    1
    14     6     8   ar
    15     8    12    1
    16    12    13   ar
    17    13    14   ar
    18    14    15    1
    19    14    16   ar
    20    16    17   ar
    21    17    18   ar
    22    18    19    1
    23     8     9   ar
    24     9    10   ar
    25    10    11    1
    26    11    29    1
    27    29    30    2
    28    29    31   am
    29    31    32    1
    30    31    33    1
    31    34    33    1
    32    34    35    1
    33    35    36    1
    34    36    37    1
    35    37    38    1
    36    27    28   ar
    37    28    22   ar
    38    11     1    1
    39    38    34    1
    40    10     4   ar
    41    18    12   ar
    42    15    20    1
    43    38    39    1
@<TRIPOS>MOLECULE
*****
 39 43 0 0 0
SMALL
GASTEIGER

@<TRIPOS>ATOM
      1 N         139.7501  139.3986  162.3418 N.pl3   1  UNL1       -0.2598
      2 C         138.7614  138.3568  162.7743 C.2     1  UNL1        0.1681
      3 N         138.4067  138.2159  164.2249 N.2     1  UNL1       -0.2278
      4 C         139.0406  139.1167  165.2430 C.ar    1  UNL1        0.0806
      5 C         138.6858  138.9757  166.6937 C.ar    1  UNL1        0.0146
      6 C         139.3198  139.8766  167.7118 C.ar    1  UNL1       -0.0203
      7 C         138.9651  139.7356  169.1624 C.3     1  UNL1        0.0311
      8 C         140.3086  140.9184  167.2792 C.ar    1  UNL1       -0.0018
      9 C         140.6633  141.0593  165.8286 C.ar    1  UNL1       -0.0009
     10 C         140.0293  140.1585  164.8105 C.ar    1  UNL1        0.0225
     11 C         140.3841  140.2994  163.3599 C.3     1  UNL1        0.1793
     12 C         140.9425  141.8193  168.2973 C.ar    1  UNL1        0.0302
     13 C         140.1785  142.9891  168.8430 C.ar    1  UNL1        0.0388
     14 C         140.8124  143.8900  169.8611 C.ar    1  UNL1        0.1338
     15 O         140.0484  145.0598  170.4067 O.3     1  UNL1       -0.5055
     16 C         142.2105  143.6210  170.3336 C.ar    1  UNL1        0.0389
     17 C         142.9745  142.4511  169.7879 C.ar    1  UNL1        0.0327
     18 C         142.3405  141.5503  168.7698 C.ar    1  UNL1        0.1403
     19 F         143.1045  140.3804  168.2242 F       1  UNL1       -0.2042
     20 H         139.1752  145.2279  170.1116 H       1  UNL1        0.2922
     21 C         139.0113  141.6739  157.7291 C.3     1  UNL1        0.0311
     22 C         139.7355  140.6772  158.5848 C.ar    1  UNL1       -0.0198
     23 C         140.8144  139.8216  157.9899 C.ar    1  UNL1        0.0072
     24 C         141.5386  138.8249  158.8457 C.ar    1  UNL1        0.0586
     25 CL        142.6174  137.9693  158.2509 Cl      1  UNL1       -0.0822
     26 C         141.1838  138.6840  160.2963 C.ar    1  UNL1        0.0263
     27 C         140.1049  139.5396  160.8912 C.ar    1  UNL1        0.0540
     28 C         139.3807  140.5362  160.0354 C.ar    1  UNL1        0.0107
     29 C         141.3728  141.3413  162.9274 C.2     1  UNL1        0.2485
     30 O         142.8305  140.9997  162.8357 O.2     1  UNL1       -0.2727
     31 N         140.9038  142.7247  162.5866 N.am    1  UNL1       -0.2748
     32 C         139.4461  143.0663  162.6783 C.3     1  UNL1        0.1150
     33 C         141.8925  143.7665  162.1540 C.3     1  UNL1        0.1091
     34 C         141.9918  144.1517  160.7077 C.3     1  UNL1        0.0741
     35 C         142.4645  143.2692  159.5907 C.3     1  UNL1        0.0189
     36 C         142.4006  144.0591  158.3171 C.3     1  UNL1        0.0185
     37 C         141.8884  145.4298  158.6470 C.3     1  UNL1        0.0686
     38 N         141.6358  145.4870  160.1245 N.3     1  UNL1       -0.2972
     39 H         140.6516  145.6900  160.2997 H       1  UNL1        0.1233
@<TRIPOS>BOND
     1    21    22    1
     2    22    23   ar
     3    23    24   ar
     4    24    25    1
     5    24    26   ar
     6    26    27   ar
     7    27     1    1
     8     1     2    1
     9     2     3    2
    10     3     4    1
    11     4     5   ar
    12     5     6   ar
    13     6     7    1
    14     6     8   ar
    15     8    12    1
    16    12    13   ar
    17    13    14   ar
    18    14    15    1
    19    14    16   ar
    20    16    17   ar
    21    17    18   ar
    22    18    19    1
    23     8     9   ar
    24     9    10   ar
    25    10    11    1
    26    11    29    1
    27    29    30    2
    28    29    31   am
    29    31    32    1
    30    31    33    1
    31    34    33    1
    32    34    35    1
    33    35    36    1
    34    36    37    1
    35    37    38    1
    36    27    28   ar
    37    28    22   ar
    38    11     1    1
    39    38    34    1
    40    10     4   ar
    41    18    12   ar
    42    15    20    1
    43    38    39    1
@<TRIPOS>MOLECULE
*****
 39 43 0 0 0
SMALL
GASTEIGER

@<TRIPOS>ATOM
      1 N         139.9024  143.7447  161.3725 N.pl3   1  UNL1       -0.2598
      2 C         140.5751  144.8917  160.6785 C.2     1  UNL1        0.1681
      3 N         140.4926  145.0178  159.1861 N.2     1  UNL1       -0.2278
      4 C         139.7375  143.9968  158.3877 C.ar    1  UNL1        0.0806
      5 C         139.6551  144.1230  156.8953 C.ar    1  UNL1        0.0146
      6 C         138.8999  143.1020  156.0969 C.ar    1  UNL1       -0.0203
      7 C         138.8175  143.2281  154.6045 C.3     1  UNL1        0.0311
      8 C         138.2272  141.9549  156.7910 C.ar    1  UNL1       -0.0018
      9 C         138.3097  141.8288  158.2834 C.ar    1  UNL1       -0.0009
     10 C         139.0648  142.8498  159.0818 C.ar    1  UNL1        0.0225
     11 C         139.1473  142.7237  160.5741 C.3     1  UNL1        0.1793
     12 C         137.4721  140.9339  155.9926 C.ar    1  UNL1        0.0302
     13 C         135.9813  141.0368  155.8620 C.ar    1  UNL1        0.0388
     14 C         135.2262  140.0158  155.0637 C.ar    1  UNL1        0.1338
     15 O         133.7354  140.1186  154.9330 O.3     1  UNL1       -0.5055
     16 C         135.9618  138.8920  154.3959 C.ar    1  UNL1        0.0389
     17 C         137.4526  138.7891  154.5265 C.ar    1  UNL1        0.0327
     18 C         138.2077  139.8101  155.3249 C.ar    1  UNL1        0.1403
     19 F         139.6984  139.7073  155.4555 F       1  UNL1       -0.2042
     20 H         133.2759  140.8206  155.3502 H       1  UNL1        0.2922
     21 C         141.9267  141.4884  165.5929 C.3     1  UNL1        0.0311
     22 C         140.9970  142.4904  164.9751 C.ar    1  UNL1       -0.0198
     23 C         140.1497  143.3663  165.8498 C.ar    1  UNL1        0.0072
     24 C         139.2200  144.3683  165.2320 C.ar    1  UNL1        0.0586
     25 CL        138.3727  145.2441  166.1067 Cl      1  UNL1       -0.0822
     26 C         139.1375  144.4944  163.7396 C.ar    1  UNL1        0.0263
     27 C         139.9848  143.6186  162.8650 C.ar    1  UNL1        0.0540
     28 C         140.9145  142.6166  163.4827 C.ar    1  UNL1        0.0107
     29 C         138.4746  141.5766  161.2682 C.2     1  UNL1        0.2485
     30 O         137.1251  141.7664  161.8949 O.2     1  UNL1       -0.2727
     31 N         139.1514  140.2397  161.3356 N.am    1  UNL1       -0.2748
     32 C         140.5010  140.0499  160.7089 C.3     1  UNL1        0.1150
     33 C         138.4788  139.0926  162.0297 C.3     1  UNL1        0.1091
     34 C         138.4747  139.0208  163.5279 C.3     1  UNL1        0.0741
     35 C         138.9497  137.8642  164.3565 C.3     1  UNL1        0.0189
     36 C         138.7635  138.2216  165.8014 C.3     1  UNL1        0.0185
     37 C         138.1733  139.5991  165.8658 C.3     1  UNL1        0.0686
     38 N         137.9949  140.0930  164.4607 N.3     1  UNL1       -0.2972
     39 H         138.5407  140.9433  164.3208 H       1  UNL1        0.1233
@<TRIPOS>BOND
     1    21    22    1
     2    22    23   ar
     3    23    24   ar
     4    24    25    1
     5    24    26   ar
     6    26    27   ar
     7    27     1    1
     8     1     2    1
     9     2     3    2
    10     3     4    1
    11     4     5   ar
    12     5     6   ar
    13     6     7    1
    14     6     8   ar
    15     8    12    1
    16    12    13   ar
    17    13    14   ar
    18    14    15    1
    19    14    16   ar
    20    16    17   ar
    21    17    18   ar
    22    18    19    1
    23     8     9   ar
    24     9    10   ar
    25    10    11    1
    26    11    29    1
    27    29    30    2
    28    29    31   am
    29    31    32    1
    30    31    33    1
    31    34    33    1
    32    34    35    1
    33    35    36    1
    34    36    37    1
    35    37    38    1
    36    27    28   ar
    37    28    22   ar
    38    11     1    1
    39    38    34    1
    40    10     4   ar
    41    18    12   ar
    42    15    20    1
    43    38    39    1
@<TRIPOS>MOLECULE
*****
 39 43 0 0 0
SMALL
GASTEIGER

@<TRIPOS>ATOM
      1 N         140.6270  140.0307  159.5691 N.pl3   1  UNL1       -0.2598
      2 C         139.6261  138.9418  159.3191 C.2     1  UNL1        0.1681
      3 N         139.0625  138.1625  160.4702 N.2     1  UNL1       -0.2278
      4 C         139.4998  138.4720  161.8712 C.ar    1  UNL1        0.0806
      5 C         138.9362  137.6927  163.0223 C.ar    1  UNL1        0.0146
      6 C         139.3735  138.0022  164.4234 C.ar    1  UNL1       -0.0203
      7 C         138.8100  137.2229  165.5744 C.3     1  UNL1        0.0311
      8 C         140.3745  139.0911  164.6733 C.ar    1  UNL1       -0.0018
      9 C         140.9381  139.8704  163.5222 C.ar    1  UNL1       -0.0009
     10 C         140.5008  139.5609  162.1212 C.ar    1  UNL1        0.0225
     11 C         141.0643  140.3402  160.9701 C.3     1  UNL1        0.1793
     12 C         140.8119  139.4006  166.0744 C.ar    1  UNL1        0.0302
     13 C         139.8493  140.0271  167.0394 C.ar    1  UNL1        0.0388
     14 C         140.2867  140.3366  168.4404 C.ar    1  UNL1        0.1338
     15 O         139.3242  140.9630  169.4054 O.3     1  UNL1       -0.5055
     16 C         141.6865  140.0197  168.8764 C.ar    1  UNL1        0.0389
     17 C         142.6490  139.3933  167.9114 C.ar    1  UNL1        0.0327
     18 C         142.2116  139.0838  166.5104 C.ar    1  UNL1        0.1403
     19 F         143.1741  138.4574  165.5454 F       1  UNL1       -0.2042
     20 H         138.4498  141.1609  169.1331 H       1  UNL1        0.2922
     21 C         140.4449  144.1464  156.4024 C.3     1  UNL1        0.0311
     22 C         141.0995  142.8679  156.8347 C.ar    1  UNL1       -0.0198
     23 C         142.3179  142.3688  156.1158 C.ar    1  UNL1        0.0072
     24 C         142.9725  141.0903  156.5481 C.ar    1  UNL1        0.0586
     25 CL        144.1908  140.5912  155.8293 Cl      1  UNL1       -0.0822
     26 C         142.4089  140.3109  157.6992 C.ar    1  UNL1        0.0263
     27 C         141.1907  140.8100  158.4180 C.ar    1  UNL1        0.0540
     28 C         140.5360  142.0885  157.9857 C.ar    1  UNL1        0.0107
     29 C         142.0653  141.4291  161.2201 C.2     1  UNL1        0.2485
     30 O         141.6020  142.8405  161.4280 O.2     1  UNL1       -0.2727
     31 N         143.5296  141.1065  161.2621 N.am    1  UNL1       -0.2748
     32 C         143.9930  139.6951  161.0541 C.3     1  UNL1        0.1150
     33 C         144.5306  142.1954  161.5120 C.3     1  UNL1        0.1091
     34 C         144.3599  143.1167  162.6833 C.3     1  UNL1        0.0741
     35 C         144.6237  142.7747  164.1198 C.3     1  UNL1        0.0189
     36 C         144.3222  143.9884  164.9482 C.3     1  UNL1        0.0185
     37 C         143.8721  145.0805  164.0236 C.3     1  UNL1        0.0686
     38 N         143.8954  144.5417  162.6239 N.3     1  UNL1       -0.2972
     39 H         144.5368  145.0913  162.0521 H       1  UNL1        0.1233
@<TRIPOS>BOND
     1    21    22    1
     2    22    23   ar
     3    23    24   ar
     4    24    25    1
     5    24    26   ar
     6    26    27   ar
     7    27     1    1
     8     1     2    1
     9     2     3    2
    10     3     4    1
    11     4     5   ar
    12     5     6   ar
    13     6     7    1
    14     6     8   ar
    15     8    12    1
    16    12    13   ar
    17    13    14   ar
    18    14    15    1
    19    14    16   ar
    20    16    17   ar
    21    17    18   ar
    22    18    19    1
    23     8     9   ar
    24     9    10   ar
    25    10    11    1
    26    11    29    1
    27    29    30    2
    28    29    31   am
    29    31    32    1
    30    31    33    1
    31    34    33    1
    32    34    35    1
    33    35    36    1
    34    36    37    1
    35    37    38    1
    36    27    28   ar
    37    28    22   ar
    38    11     1    1
    39    38    34    1
    40    10     4   ar
    41    18    12   ar
    42    15    20    1
    43    38    39    1
@<TRIPOS>MOLECULE
*****
 39 43 0 0 0
SMALL
GASTEIGER

@<TRIPOS>ATOM
      1 N         139.8018  143.6449  161.1617 N.pl3   1  UNL1       -0.2598
      2 C         140.3598  144.8438  160.4537 C.2     1  UNL1        0.1681
      3 N         140.2750  144.9389  158.9592 N.2     1  UNL1       -0.2278
      4 C         139.6323  143.8352  158.1726 C.ar    1  UNL1        0.0806
      5 C         139.5475  143.9304  156.6780 C.ar    1  UNL1        0.0146
      6 C         138.9048  142.8266  155.8915 C.ar    1  UNL1       -0.0203
      7 C         138.8200  142.9218  154.3969 C.3     1  UNL1        0.0311
      8 C         138.3469  141.6277  156.5995 C.ar    1  UNL1       -0.0018
      9 C         138.4316  141.5325  158.0941 C.ar    1  UNL1       -0.0009
     10 C         139.0743  142.6363  158.8806 C.ar    1  UNL1        0.0225
     11 C         139.1591  142.5412  160.3752 C.3     1  UNL1        0.1793
     12 C         137.7041  140.5239  155.8130 C.ar    1  UNL1        0.0302
     13 C         138.5168  139.3395  155.3808 C.ar    1  UNL1        0.0388
     14 C         137.8741  138.2357  154.5942 C.ar    1  UNL1        0.1338
     15 O         138.6867  137.0513  154.1620 O.3     1  UNL1       -0.5055
     16 C         136.4187  138.3164  154.2399 C.ar    1  UNL1        0.0389
     17 C         135.6061  139.5008  154.6722 C.ar    1  UNL1        0.0327
     18 C         136.2488  140.6046  155.4587 C.ar    1  UNL1        0.1403
     19 F         135.4363  141.7890  155.8909 F       1  UNL1       -0.2042
     20 H         139.5957  137.0009  154.3833 H       1  UNL1        0.2922
     21 C         141.8857  141.5279  165.4250 C.3     1  UNL1        0.0311
     22 C         140.9286  142.4912  164.7880 C.ar    1  UNL1       -0.0198
     23 C         140.0561  143.3593  165.6455 C.ar    1  UNL1        0.0072
     24 C         139.0989  144.3226  165.0084 C.ar    1  UNL1        0.0586
     25 CL        138.2265  145.1907  165.8659 Cl      1  UNL1       -0.0822
     26 C         139.0142  144.4178  163.5138 C.ar    1  UNL1        0.0263
     27 C         139.8866  143.5497  162.6563 C.ar    1  UNL1        0.0540
     28 C         140.8438  142.5864  163.2934 C.ar    1  UNL1        0.0107
     29 C         138.6012  141.3422  161.0833 C.2     1  UNL1        0.2485
     30 O         137.2193  141.3903  161.6646 O.2     1  UNL1       -0.2727
     31 N         139.4252  140.0952  161.2100 N.am    1  UNL1       -0.2748
     32 C         140.8071  140.0472  160.6286 C.3     1  UNL1        0.1150
     33 C         138.8673  138.8963  161.9180 C.3     1  UNL1        0.1091
     34 C         138.7209  138.9077  163.4108 C.3     1  UNL1        0.0741
     35 C         139.0339  137.7693  164.3361 C.3     1  UNL1        0.0189
     36 C         138.7423  138.2174  165.7376 C.3     1  UNL1        0.0185
     37 C         138.2492  139.6328  165.6785 C.3     1  UNL1        0.0686
     38 N         138.2360  140.0594  164.2405 N.3     1  UNL1       -0.2972
     39 H         138.8520  140.8622  164.1119 H       1  UNL1        0.1233
@<TRIPOS>BOND
     1    21    22    1
     2    22    23   ar
     3    23    24   ar
     4    24    25    1
     5    24    26   ar
     6    26    27   ar
     7    27     1    1
     8     1     2    1
     9     2     3    2
    10     3     4    1
    11     4     5   ar
    12     5     6   ar
    13     6     7    1
    14     6     8   ar
    15     8    12    1
    16    12    13   ar
    17    13    14   ar
    18    14    15    1
    19    14    16   ar
    20    16    17   ar
    21    17    18   ar
    22    18    19    1
    23     8     9   ar
    24     9    10   ar
    25    10    11    1
    26    11    29    1
    27    29    30    2
    28    29    31   am
    29    31    32    1
    30    31    33    1
    31    34    33    1
    32    34    35    1
    33    35    36    1
    34    36    37    1
    35    37    38    1
    36    27    28   ar
    37    28    22   ar
    38    11     1    1
    39    38    34    1
    40    10     4   ar
    41    18    12   ar
    42    15    20    1
    43    38    39    1
@<TRIPOS>MOLECULE
*****
 39 43 0 0 0
SMALL
GASTEIGER

@<TRIPOS>ATOM
      1 N         141.8724  141.4100  160.4836 N.pl3   1  UNL1       -0.2598
      2 C         142.7241  142.3087  159.6370 C.2     1  UNL1        0.1681
      3 N         143.3822  141.7720  158.4005 N.2     1  UNL1       -0.2278
      4 C         143.1886  140.3365  158.0108 C.ar    1  UNL1        0.0806
      5 C         143.8468  139.7998  156.7742 C.ar    1  UNL1        0.0146
      6 C         143.6532  138.3643  156.3845 C.ar    1  UNL1       -0.0203
      7 C         144.3113  137.8276  155.1480 C.3     1  UNL1        0.0311
      8 C         142.8015  137.4656  157.2312 C.ar    1  UNL1       -0.0018
      9 C         142.1434  138.0023  158.4676 C.ar    1  UNL1       -0.0009
     10 C         142.3370  139.4378  158.8574 C.ar    1  UNL1        0.0225
     11 C         141.6789  139.9745  160.0938 C.3     1  UNL1        0.1793
     12 C         142.6079  136.0301  156.8414 C.ar    1  UNL1        0.0302
     13 C         143.3508  134.9487  157.5687 C.ar    1  UNL1        0.0388
     14 C         143.1572  133.5132  157.1790 C.ar    1  UNL1        0.1338
     15 O         143.9000  132.4319  157.9062 O.3     1  UNL1       -0.5055
     16 C         142.2208  133.1591  156.0619 C.ar    1  UNL1        0.0389
     17 C         141.4780  134.2405  155.3346 C.ar    1  UNL1        0.0327
     18 C         141.6716  135.6759  155.7244 C.ar    1  UNL1        0.1403
     19 F         140.9288  136.7573  154.9972 F       1  UNL1       -0.2042
     20 H         144.4850  132.6531  158.6040 H       1  UNL1        0.2922
     21 C         137.7245  143.4677  162.8418 C.3     1  UNL1        0.0311
     22 C         139.1403  142.9755  162.8991 C.ar    1  UNL1       -0.0198
     23 C         139.8980  143.0201  164.1930 C.ar    1  UNL1        0.0072
     24 C         141.3138  142.5279  164.2504 C.ar    1  UNL1        0.0586
     25 CL        142.0714  142.5724  165.5442 Cl      1  UNL1       -0.0822
     26 C         141.9719  141.9912  163.0139 C.ar    1  UNL1        0.0263
     27 C         141.2143  141.9467  161.7201 C.ar    1  UNL1        0.0540
     28 C         139.7985  142.4388  161.6627 C.ar    1  UNL1        0.0107
     29 C         140.8272  139.0757  160.9406 C.2     1  UNL1        0.2485
     30 O         139.3670  138.9198  160.6350 O.2     1  UNL1       -0.2727
     31 N         141.4358  138.3329  162.0929 N.am    1  UNL1       -0.2748
     32 C         142.8960  138.4888  162.3984 C.3     1  UNL1        0.1150
     33 C         140.5841  137.4342  162.9396 C.3     1  UNL1        0.1091
     34 C         139.7212  138.0172  164.0192 C.3     1  UNL1        0.0741
     35 C         139.3489  139.4628  164.1660 C.3     1  UNL1        0.0189
     36 C         138.4767  139.5960  165.3791 C.3     1  UNL1        0.0185
     37 C         138.3100  138.2326  165.9820 C.3     1  UNL1        0.0686
     38 N         139.0792  137.2569  165.1416 N.3     1  UNL1       -0.2972
     39 H         138.4467  136.5512  164.7643 H       1  UNL1        0.1233
@<TRIPOS>BOND
     1    21    22    1
     2    22    23   ar
     3    23    24   ar
     4    24    25    1
     5    24    26   ar
     6    26    27   ar
     7    27     1    1
     8     1     2    1
     9     2     3    2
    10     3     4    1
    11     4     5   ar
    12     5     6   ar
    13     6     7    1
    14     6     8   ar
    15     8    12    1
    16    12    13   ar
    17    13    14   ar
    18    14    15    1
    19    14    16   ar
    20    16    17   ar
    21    17    18   ar
    22    18    19    1
    23     8     9   ar
    24     9    10   ar
    25    10    11    1
    26    11    29    1
    27    29    30    2
    28    29    31   am
    29    31    32    1
    30    31    33    1
    31    34    33    1
    32    34    35    1
    33    35    36    1
    34    36    37    1
    35    37    38    1
    36    27    28   ar
    37    28    22   ar
    38    11     1    1
    39    38    34    1
    40    10     4   ar
    41    18    12   ar
    42    15    20    1
    43    38    39    1
@<TRIPOS>MOLECULE
*****
 39 43 0 0 0
SMALL
GASTEIGER

@<TRIPOS>ATOM
      1 N         141.8739  141.3268  160.2396 N.pl3   1  UNL1       -0.2598
      2 C         142.7322  142.1988  159.3719 C.2     1  UNL1        0.1681
      3 N         143.3889  141.6270  158.1505 N.2     1  UNL1       -0.2278
      4 C         143.1873  140.1833  157.7969 C.ar    1  UNL1        0.0806
      5 C         143.8441  139.6115  156.5755 C.ar    1  UNL1        0.0146
      6 C         143.6425  138.1678  156.2218 C.ar    1  UNL1       -0.0203
      7 C         144.2992  137.5961  155.0005 C.3     1  UNL1        0.0311
      8 C         142.7841  137.2959  157.0896 C.ar    1  UNL1       -0.0018
      9 C         142.1274  137.8677  158.3110 C.ar    1  UNL1       -0.0009
     10 C         142.3290  139.3114  158.6646 C.ar    1  UNL1        0.0225
     11 C         141.6723  139.8831  159.8860 C.3     1  UNL1        0.1793
     12 C         142.5825  135.8522  156.7360 C.ar    1  UNL1        0.0302
     13 C         143.3812  134.7907  157.4328 C.ar    1  UNL1        0.0388
     14 C         143.1796  133.3470  157.0791 C.ar    1  UNL1        0.1338
     15 O         143.9782  132.2856  157.7759 O.3     1  UNL1       -0.5055
     16 C         142.1793  132.9648  156.0287 C.ar    1  UNL1        0.0389
     17 C         141.3807  134.0262  155.3319 C.ar    1  UNL1        0.0327
     18 C         141.5823  135.4699  155.6856 C.ar    1  UNL1        0.1403
     19 F         140.7837  136.5313  154.9888 F       1  UNL1       -0.2042
     20 H         144.6030  132.5243  158.4321 H       1  UNL1        0.2922
     21 C         142.0836  142.6469  165.2609 C.3     1  UNL1        0.0311
     22 C         141.3220  142.5586  163.9717 C.ar    1  UNL1       -0.0198
     23 C         139.9037  143.0421  163.9039 C.ar    1  UNL1        0.0072
     24 C         139.1421  142.9538  162.6146 C.ar    1  UNL1        0.0586
     25 CL        137.7238  143.4373  162.5468 Cl      1  UNL1       -0.0822
     26 C         139.7988  142.3821  161.3932 C.ar    1  UNL1        0.0263
     27 C         141.2171  141.8986  161.4610 C.ar    1  UNL1        0.0540
     28 C         141.9787  141.9869  162.7503 C.ar    1  UNL1        0.0107
     29 C         140.8139  139.0112  160.7538 C.2     1  UNL1        0.2485
     30 O         139.3665  138.8095  160.4158 O.2     1  UNL1       -0.2727
     31 N         141.4031  138.3409  161.9594 N.am    1  UNL1       -0.2748
     32 C         142.8506  138.5426  162.2973 C.3     1  UNL1        0.1150
     33 C         140.5448  137.4690  162.8272 C.3     1  UNL1        0.1091
     34 C         139.6841  138.0843  163.8905 C.3     1  UNL1        0.0741
     35 C         139.1632  139.4909  163.8988 C.3     1  UNL1        0.0189
     36 C         138.3503  139.6770  165.1456 C.3     1  UNL1        0.0185
     37 C         138.3687  138.3852  165.9080 C.3     1  UNL1        0.0686
     38 N         139.1930  137.4010  165.1323 N.3     1  UNL1       -0.2972
     39 H         138.6223  136.5939  164.8806 H       1  UNL1        0.1233
@<TRIPOS>BOND
     1    21    22    1
     2    22    23   ar
     3    23    24   ar
     4    24    25    1
     5    24    26   ar
     6    26    27   ar
     7    27     1    1
     8     1     2    1
     9     2     3    2
    10     3     4    1
    11     4     5   ar
    12     5     6   ar
    13     6     7    1
    14     6     8   ar
    15     8    12    1
    16    12    13   ar
    17    13    14   ar
    18    14    15    1
    19    14    16   ar
    20    16    17   ar
    21    17    18   ar
    22    18    19    1
    23     8     9   ar
    24     9    10   ar
    25    10    11    1
    26    11    29    1
    27    29    30    2
    28    29    31   am
    29    31    32    1
    30    31    33    1
    31    34    33    1
    32    34    35    1
    33    35    36    1
    34    36    37    1
    35    37    38    1
    36    27    28   ar
    37    28    22   ar
    38    11     1    1
    39    38    34    1
    40    10     4   ar
    41    18    12   ar
    42    15    20    1
    43    38    39    1
@<TRIPOS>MOLECULE
*****
 39 43 0 0 0
SMALL
GASTEIGER

@<TRIPOS>ATOM
      1 N         143.1564  140.1981  161.5915 N.pl3   1  UNL1       -0.2598
      2 C         143.5296  138.7684  161.8494 C.2     1  UNL1        0.1681
      3 N         143.5378  138.2368  163.2520 N.2     1  UNL1       -0.2278
      4 C         143.1728  139.1349  164.3966 C.ar    1  UNL1        0.0806
      5 C         143.1810  138.6033  165.7993 C.ar    1  UNL1        0.0146
      6 C         142.8161  139.5014  166.9439 C.ar    1  UNL1       -0.0203
      7 C         142.8243  138.9698  168.3465 C.3     1  UNL1        0.0311
      8 C         142.4429  140.9312  166.6859 C.ar    1  UNL1       -0.0018
      9 C         142.4347  141.4628  165.2833 C.ar    1  UNL1       -0.0009
     10 C         142.7997  140.5646  164.1387 C.ar    1  UNL1        0.0225
     11 C         142.7915  141.0962  162.7361 C.3     1  UNL1        0.1793
     12 C         142.0779  141.8293  167.8305 C.ar    1  UNL1        0.0302
     13 C         143.1322  142.2745  168.8002 C.ar    1  UNL1        0.0388
     14 C         142.7673  143.1726  169.9449 C.ar    1  UNL1        0.1338
     15 O         143.8215  143.6177  170.9146 O.3     1  UNL1       -0.5055
     16 C         141.3480  143.6256  170.1197 C.ar    1  UNL1        0.0389
     17 C         140.2938  143.1804  169.1500 C.ar    1  UNL1        0.0327
     18 C         140.6587  142.2823  168.0054 C.ar    1  UNL1        0.1403
     19 F         139.6045  141.8372  167.0357 F       1  UNL1       -0.2042
     20 H         144.7080  143.3348  170.8053 H       1  UNL1        0.2922
     21 C         145.5954  142.5695  157.6636 C.3     1  UNL1        0.0311
     22 C         144.3677  141.9154  158.2249 C.ar    1  UNL1       -0.0198
     23 C         143.1319  141.7930  157.3836 C.ar    1  UNL1        0.0072
     24 C         141.9042  141.1390  157.9449 C.ar    1  UNL1        0.0586
     25 CL        140.6684  141.0166  157.1037 Cl      1  UNL1       -0.0822
     26 C         141.9124  140.6073  159.3476 C.ar    1  UNL1        0.0263
     27 C         143.1482  140.7297  160.1888 C.ar    1  UNL1        0.0540
     28 C         144.3759  141.3838  159.6275 C.ar    1  UNL1        0.0107
     29 C         142.4183  142.5260  162.4780 C.2     1  UNL1        0.2485
     30 O         143.4698  143.5949  162.5202 O.2     1  UNL1       -0.2727
     31 N         140.9936  142.8868  162.1778 N.am    1  UNL1       -0.2748
     32 C         139.9421  141.8178  162.1357 C.3     1  UNL1        0.1150
     33 C         140.6204  144.3165  161.9198 C.3     1  UNL1        0.1091
     34 C         140.7106  144.8763  160.5311 C.3     1  UNL1        0.0741
     35 C         141.7912  144.5862  159.5320 C.3     1  UNL1        0.0189
     36 C         141.4845  145.3551  158.2811 C.3     1  UNL1        0.0185
     37 C         140.2144  146.1205  158.5071 C.3     1  UNL1        0.0686
     38 N         139.7361  145.8246  159.8977 N.3     1  UNL1       -0.2972
     39 H         138.8107  145.3971  159.8618 H       1  UNL1        0.1233
@<TRIPOS>BOND
     1    21    22    1
     2    22    23   ar
     3    23    24   ar
     4    24    25    1
     5    24    26   ar
     6    26    27   ar
     7    27     1    1
     8     1     2    1
     9     2     3    2
    10     3     4    1
    11     4     5   ar
    12     5     6   ar
    13     6     7    1
    14     6     8   ar
    15     8    12    1
    16    12    13   ar
    17    13    14   ar
    18    14    15    1
    19    14    16   ar
    20    16    17   ar
    21    17    18   ar
    22    18    19    1
    23     8     9   ar
    24     9    10   ar
    25    10    11    1
    26    11    29    1
    27    29    30    2
    28    29    31   am
    29    31    32    1
    30    31    33    1
    31    34    33    1
    32    34    35    1
    33    35    36    1
    34    36    37    1
    35    37    38    1
    36    27    28   ar
    37    28    22   ar
    38    11     1    1
    39    38    34    1
    40    10     4   ar
    41    18    12   ar
    42    15    20    1
    43    38    39    1
@<TRIPOS>MOLECULE
*****
 39 43 0 0 0
SMALL
GASTEIGER

@<TRIPOS>ATOM
      1 N         142.3517  141.0342  159.7522 N.pl3   1  UNL1       -0.2598
      2 C         143.4651  140.0533  159.5325 C.2     1  UNL1        0.1681
      3 N         144.0972  139.3617  160.7038 N.2     1  UNL1       -0.2278
      4 C         143.6159  139.6508  162.0948 C.ar    1  UNL1        0.0806
      5 C         144.2481  138.9591  163.2661 C.ar    1  UNL1        0.0146
      6 C         143.7668  139.2483  164.6571 C.ar    1  UNL1       -0.0203
      7 C         144.3990  138.5566  165.8284 C.3     1  UNL1        0.0311
      8 C         142.6534  140.2292  164.8767 C.ar    1  UNL1       -0.0018
      9 C         142.0213  140.9208  163.7054 C.ar    1  UNL1       -0.0009
     10 C         142.5026  140.6317  162.3144 C.ar    1  UNL1        0.0225
     11 C         141.8704  141.3233  161.1431 C.3     1  UNL1        0.1793
     12 C         142.1721  140.5184  166.2677 C.ar    1  UNL1        0.0302
     13 C         142.8784  141.5403  167.1084 C.ar    1  UNL1        0.0388
     14 C         142.3972  141.8295  168.4993 C.ar    1  UNL1        0.1338
     15 O         143.1034  142.8514  169.3401 O.3     1  UNL1       -0.5055
     16 C         141.2096  141.0967  169.0496 C.ar    1  UNL1        0.0389
     17 C         140.5033  140.0748  168.2088 C.ar    1  UNL1        0.0327
     18 C         140.9846  139.7856  166.8179 C.ar    1  UNL1        0.1403
     19 F         140.2783  138.7637  165.9772 F       1  UNL1       -0.2042
     20 H         143.8453  143.3091  168.9964 H       1  UNL1        0.2922
     21 C         142.1781  145.0424  156.4501 C.3     1  UNL1        0.0311
     22 C         141.6328  143.7300  156.9298 C.ar    1  UNL1       -0.0198
     23 C         140.4553  143.1093  156.2382 C.ar    1  UNL1        0.0072
     24 C         139.9099  141.7969  156.7180 C.ar    1  UNL1        0.0586
     25 CL        138.7324  141.1762  156.0265 Cl      1  UNL1       -0.0822
     26 C         140.5421  141.1052  157.8893 C.ar    1  UNL1        0.0263
     27 C         141.7195  141.7259  158.5809 C.ar    1  UNL1        0.0540
     28 C         142.2649  143.0383  158.1011 C.ar    1  UNL1        0.0107
     29 C         140.7570  142.3042  161.3628 C.2     1  UNL1        0.2485
     30 O         139.3301  141.8475  161.2907 O.2     1  UNL1       -0.2727
     31 N         141.0706  143.7418  161.6544 N.am    1  UNL1       -0.2748
     32 C         142.4976  144.1985  161.7265 C.3     1  UNL1        0.1150
     33 C         139.9572  144.7226  161.8740 C.3     1  UNL1        0.1091
     34 C         139.1904  144.7106  163.1632 C.3     1  UNL1        0.0741
     35 C         137.7930  144.1995  163.3531 C.3     1  UNL1        0.0189
     36 C         137.4253  144.3805  164.7961 C.3     1  UNL1        0.0185
     37 C         138.5955  145.0036  165.4979 C.3     1  UNL1        0.0686
     38 N         139.6863  145.2075  164.4887 N.3     1  UNL1       -0.2972
     39 H         140.5167  144.6841  164.7660 H       1  UNL1        0.1233
@<TRIPOS>BOND
     1    21    22    1
     2    22    23   ar
     3    23    24   ar
     4    24    25    1
     5    24    26   ar
     6    26    27   ar
     7    27     1    1
     8     1     2    1
     9     2     3    2
    10     3     4    1
    11     4     5   ar
    12     5     6   ar
    13     6     7    1
    14     6     8   ar
    15     8    12    1
    16    12    13   ar
    17    13    14   ar
    18    14    15    1
    19    14    16   ar
    20    16    17   ar
    21    17    18   ar
    22    18    19    1
    23     8     9   ar
    24     9    10   ar
    25    10    11    1
    26    11    29    1
    27    29    30    2
    28    29    31   am
    29    31    32    1
    30    31    33    1
    31    34    33    1
    32    34    35    1
    33    35    36    1
    34    36    37    1
    35    37    38    1
    36    27    28   ar
    37    28    22   ar
    38    11     1    1
    39    38    34    1
    40    10     4   ar
    41    18    12   ar
    42    15    20    1
    43    38    39    1
