@<TRIPOS>MOLECULE
*****
 34 39 0 0 0
SMALL
GASTEIGER

@<TRIPOS>ATOM
      1 C         142.5753  136.8259  157.8351 C.3     1  UNL1        0.1161
      2 C         143.2804  135.5190  157.6231 C.3     1  UNL1        0.0510
      3 C         142.9259  134.6575  156.4474 C.2     1  UNL1       -0.0044
      4 C         141.8663  135.1030  155.4837 C.2     1  UNL1        0.0689
      5 N         141.7313  134.0501  154.4240 N.2     1  UNL1       -0.2526
      6 C         142.7076  132.9538  154.7327 C.2     1  UNL1        0.0627
      7 C         143.0196  131.6623  154.0367 C.3     1  UNL1        0.0717
      8 C         144.0699  130.7462  154.5912 C.2     1  UNL1       -0.0198
      9 C         144.8082  131.1217  155.8418 C.2     1  UNL1       -0.0042
     10 C         144.4962  132.4132  156.5378 C.2     1  UNL1        0.0006
     11 C         143.4459  133.3293  155.9833 C.2     1  UNL1        0.0111
     12 C         141.1612  136.4099  155.6957 C.3     1  UNL1        0.0949
     13 N         141.5157  137.2713  156.8713 N.3     1  UNL1       -0.2887
     14 H         140.6602  137.3980  157.4122 H       1  UNL1        0.1239
     15 C         143.2490  138.4703  161.2858 C.ar    1  UNL1        0.0769
     16 C         143.7019  139.5553  160.3543 C.ar    1  UNL1        0.1171
     17 N         143.5046  139.0714  158.9483 N.ar    1  UNL1       -0.2282
     18 C         142.9299  137.6873  159.0108 C.ar    1  UNL1        0.1318
     19 N         142.7719  137.3158  160.4554 N.ar    1  UNL1       -0.3397
     20 H         142.4173  136.4638  160.7984 H       1  UNL1        0.1671
     21 O         143.3316  138.7067  167.2806 O.3     1  UNL1       -0.5055
     22 C         143.3110  138.6476  165.7818 C.ar    1  UNL1        0.1337
     23 C         144.4519  139.2186  164.9930 C.ar    1  UNL1        0.0367
     24 C         144.4312  139.1595  163.4943 C.ar    1  UNL1        0.0046
     25 C         143.2696  138.5294  162.7845 C.ar    1  UNL1        0.0174
     26 C         142.1288  137.9584  163.5734 C.ar    1  UNL1        0.0046
     27 C         142.1495  138.0175  165.0720 C.ar    1  UNL1        0.0367
     28 H         144.0572  139.1003  167.7240 H       1  UNL1        0.2922
     29 C         140.1015  136.8554  154.7320 C.3     1  UNL1        0.0252
     30 C         140.4210  136.9822  153.2720 C.3     1  UNL1        0.0339
     31 C         139.3613  137.4277  152.3083 C.3     1  UNL1        0.1422
     32 O         137.9822  137.7463  152.8046 O.3     1  UNL1       -0.3538
     33 C         137.6627  137.6194  154.2647 C.3     1  UNL1        0.1422
     34 C         138.7223  137.1740  155.2283 C.3     1  UNL1        0.0339
@<TRIPOS>BOND
     1    21    22    1
     2    22    23   ar
     3    23    24   ar
     4    24    25   ar
     5    25    15    1
     6    15    16   ar
     7    16    17   ar
     8    17    18   ar
     9     1    18    1
    10     1     2    1
    11     2     3    1
    12     3     4    2
    13     4     5    1
    14     5     6    2
    15     6     7    1
    16     7     8    1
    17     8     9    2
    18     9    10    1
    19    10    11    2
    20     4    12    1
    21    12    29    1
    22    29    30    1
    23    30    31    1
    24    31    32    1
    25    32    33    1
    26    33    34    1
    27    12    13    1
    28    18    19   ar
    29    25    26   ar
    30    26    27   ar
    31    27    22   ar
    32    19    15   ar
    33    13     1    1
    34    11     3    1
    35    34    29    1
    36    11     6    1
    37    21    28    1
    38    13    14    1
    39    19    20    1
@<TRIPOS>MOLECULE
*****
 34 39 0 0 0
SMALL
GASTEIGER

@<TRIPOS>ATOM
      1 C         142.3504  139.7125  159.8528 C.3     1  UNL1        0.1161
      2 C         143.3930  140.6436  159.3085 C.3     1  UNL1        0.0510
      3 C         144.0363  140.3573  157.9840 C.2     1  UNL1       -0.0044
      4 C         143.6370  139.1399  157.2039 C.2     1  UNL1        0.0689
      5 N         144.4393  139.1178  155.9367 N.2     1  UNL1       -0.2526
      6 C         145.3344  140.3214  155.9336 C.2     1  UNL1        0.0627
      7 C         146.3441  140.8188  154.9421 C.3     1  UNL1        0.0717
      8 C         147.1047  142.0823  155.2160 C.2     1  UNL1       -0.0198
      9 C         146.8556  142.8484  156.4814 C.2     1  UNL1       -0.0042
     10 C         145.8459  142.3510  157.4728 C.2     1  UNL1        0.0006
     11 C         145.0853  141.0875  157.1990 C.2     1  UNL1        0.0111
     12 C         142.5944  138.2089  157.7482 C.3     1  UNL1        0.0949
     13 N         141.9512  138.4952  159.0727 N.3     1  UNL1       -0.2887
     14 H         142.1355  137.6892  159.6699 H       1  UNL1        0.1239
     15 C         140.4322  139.7459  163.2269 C.ar    1  UNL1        0.0769
     16 C         141.0024  141.1331  163.2040 C.ar    1  UNL1        0.1171
     17 N         141.7904  141.2895  161.9372 N.ar    1  UNL1       -0.2282
     18 C         141.7072  139.9989  161.1773 C.ar    1  UNL1        0.1318
     19 N         140.8678  139.0449  161.9743 N.ar    1  UNL1       -0.3397
     20 H         140.6423  138.1209  161.7200 H       1  UNL1        0.1671
     21 O         137.0098  137.4109  167.5669 O.3     1  UNL1       -0.5055
     22 C         137.8654  137.9947  166.4819 C.ar    1  UNL1        0.1337
     23 C         138.1096  139.4739  166.4334 C.ar    1  UNL1        0.0367
     24 C         138.9652  140.0576  165.3485 C.ar    1  UNL1        0.0046
     25 C         139.5766  139.1621  164.3119 C.ar    1  UNL1        0.0174
     26 C         139.3323  137.6830  164.3604 C.ar    1  UNL1        0.0046
     27 C         138.4768  137.0992  165.4453 C.ar    1  UNL1        0.0367
     28 H         136.6279  137.9703  168.2144 H       1  UNL1        0.2922
     29 C         142.1952  136.9915  156.9681 C.3     1  UNL1        0.0252
     30 C         142.9332  135.7004  157.1631 C.3     1  UNL1        0.0339
     31 C         142.5339  134.4830  156.3829 C.3     1  UNL1        0.1422
     32 O         141.3965  134.5568  155.4078 O.3     1  UNL1       -0.3538
     33 C         140.6584  135.8481  155.2128 C.3     1  UNL1        0.1422
     34 C         141.0577  137.0653  155.9929 C.3     1  UNL1        0.0339
@<TRIPOS>BOND
     1    21    22    1
     2    22    23   ar
     3    23    24   ar
     4    24    25   ar
     5    25    15    1
     6    15    16   ar
     7    16    17   ar
     8    17    18   ar
     9     1    18    1
    10     1     2    1
    11     2     3    1
    12     3     4    2
    13     4     5    1
    14     5     6    2
    15     6     7    1
    16     7     8    1
    17     8     9    2
    18     9    10    1
    19    10    11    2
    20     4    12    1
    21    12    29    1
    22    29    30    1
    23    30    31    1
    24    31    32    1
    25    32    33    1
    26    33    34    1
    27    12    13    1
    28    18    19   ar
    29    25    26   ar
    30    26    27   ar
    31    27    22   ar
    32    19    15   ar
    33    13     1    1
    34    11     3    1
    35    34    29    1
    36    11     6    1
    37    21    28    1
    38    13    14    1
    39    19    20    1
@<TRIPOS>MOLECULE
*****
 34 39 0 0 0
SMALL
GASTEIGER

@<TRIPOS>ATOM
      1 C         141.3360  138.9243  158.6114 C.3     1  UNL1        0.1161
      2 C         142.3737  140.0019  158.5020 C.3     1  UNL1        0.0510
      3 C         143.4563  139.8984  157.4689 C.2     1  UNL1       -0.0044
      4 C         143.5012  138.7173  156.5453 C.2     1  UNL1        0.0689
      5 N         144.6793  138.8872  155.6326 N.2     1  UNL1       -0.2526
      6 C         145.3625  140.1733  155.9921 C.2     1  UNL1        0.0627
      7 C         146.5753  140.8561  155.4326 C.3     1  UNL1        0.0717
      8 C         147.0321  142.1638  156.0080 C.2     1  UNL1       -0.0198
      9 C         146.2762  142.7887  157.1430 C.2     1  UNL1       -0.0042
     10 C         145.0635  142.1060  157.7024 C.2     1  UNL1        0.0006
     11 C         144.6066  140.7983  157.1270 C.2     1  UNL1        0.0111
     12 C         142.4635  137.6397  156.6548 C.3     1  UNL1        0.0949
     13 N         141.3809  137.7432  157.6878 N.3     1  UNL1       -0.2887
     14 H         141.4541  136.9126  158.2753 H       1  UNL1        0.1239
     15 C         139.0869  139.0354  161.7729 C.ar    1  UNL1        0.0769
     16 C         138.0880  139.3387  160.6957 C.ar    1  UNL1        0.1171
     17 N         138.8089  139.3339  159.3803 N.ar    1  UNL1       -0.2282
     18 C         140.2533  139.0278  159.6445 C.ar    1  UNL1        0.1318
     19 N         140.4252  138.8433  161.1232 N.ar    1  UNL1       -0.3397
     20 H         141.2683  138.6330  161.5860 H       1  UNL1        0.1671
     21 O         137.9322  138.6573  167.6486 O.3     1  UNL1       -0.5055
     22 C         138.2209  138.7518  166.1796 C.ar    1  UNL1        0.1337
     23 C         138.6674  137.5359  165.4233 C.ar    1  UNL1        0.0367
     24 C         138.9560  137.6304  163.9544 C.ar    1  UNL1        0.0046
     25 C         138.7982  138.9409  163.2418 C.ar    1  UNL1        0.0174
     26 C         138.3517  140.1568  163.9982 C.ar    1  UNL1        0.0046
     27 C         138.0631  140.0623  165.4671 C.ar    1  UNL1        0.0367
     28 H         138.0308  137.8387  168.0937 H       1  UNL1        0.2922
     29 C         142.5084  136.4586  155.7312 C.3     1  UNL1        0.0252
     30 C         141.9062  136.5549  154.3608 C.3     1  UNL1        0.0339
     31 C         141.9512  135.3737  153.4372 C.3     1  UNL1        0.1422
     32 O         142.5983  134.0964  153.8841 O.3     1  UNL1       -0.3538
     33 C         143.2004  134.0001  155.2546 C.3     1  UNL1        0.1422
     34 C         143.1555  135.1812  156.1781 C.3     1  UNL1        0.0339
@<TRIPOS>BOND
     1    21    22    1
     2    22    23   ar
     3    23    24   ar
     4    24    25   ar
     5    25    15    1
     6    15    16   ar
     7    16    17   ar
     8    17    18   ar
     9     1    18    1
    10     1     2    1
    11     2     3    1
    12     3     4    2
    13     4     5    1
    14     5     6    2
    15     6     7    1
    16     7     8    1
    17     8     9    2
    18     9    10    1
    19    10    11    2
    20     4    12    1
    21    12    29    1
    22    29    30    1
    23    30    31    1
    24    31    32    1
    25    32    33    1
    26    33    34    1
    27    12    13    1
    28    18    19   ar
    29    25    26   ar
    30    26    27   ar
    31    27    22   ar
    32    19    15   ar
    33    13     1    1
    34    11     3    1
    35    34    29    1
    36    11     6    1
    37    21    28    1
    38    13    14    1
    39    19    20    1
@<TRIPOS>MOLECULE
*****
 34 39 0 0 0
SMALL
GASTEIGER

@<TRIPOS>ATOM
      1 C         141.5943  139.9878  162.2663 C.3     1  UNL1        0.1161
      2 C         141.3288  141.4373  161.9863 C.3     1  UNL1        0.0510
      3 C         141.0771  141.8958  160.5804 C.2     1  UNL1       -0.0044
      4 C         141.0909  140.9047  159.4546 C.2     1  UNL1        0.0689
      5 N         140.8111  141.6461  158.1810 N.2     1  UNL1       -0.2526
      6 C         140.6245  143.0954  158.5197 C.2     1  UNL1        0.0627
      7 C         140.3261  144.2945  157.6694 C.3     1  UNL1        0.0717
      8 C         140.1921  145.6479  158.3021 C.2     1  UNL1       -0.0198
      9 C         140.3565  145.8022  159.7851 C.2     1  UNL1       -0.0042
     10 C         140.6549  144.6031  160.6354 C.2     1  UNL1        0.0006
     11 C         140.7889  143.2497  160.0027 C.2     1  UNL1        0.0111
     12 C         141.3563  139.4552  159.7346 C.3     1  UNL1        0.0949
     13 N         141.6081  138.9967  161.1404 N.3     1  UNL1       -0.2887
     14 H         142.5284  138.5570  161.1464 H       1  UNL1        0.1239
     15 C         141.7939  139.3741  166.0937 C.ar    1  UNL1        0.0769
     16 C         142.6729  138.2738  165.5775 C.ar    1  UNL1        0.1171
     17 N         142.7052  138.3697  164.0810 N.ar    1  UNL1       -0.2282
     18 C         141.8461  139.5293  163.6722 C.ar    1  UNL1        0.1318
     19 N         141.2828  140.1501  164.9161 N.ar    1  UNL1       -0.3397
     20 H         140.6831  140.9300  164.9531 H       1  UNL1        0.1671
     21 O         140.5414  140.4780  171.8568 O.3     1  UNL1       -0.5055
     22 C         140.8545  140.2020  170.4160 C.ar    1  UNL1        0.1337
     23 C         139.7851  140.3492  169.3746 C.ar    1  UNL1        0.0367
     24 C         140.0982  140.0733  167.9338 C.ar    1  UNL1        0.0046
     25 C         141.4808  139.6501  167.5345 C.ar    1  UNL1        0.0174
     26 C         142.5502  139.5029  168.5759 C.ar    1  UNL1        0.0046
     27 C         142.2371  139.7788  170.0167 C.ar    1  UNL1        0.0367
     28 H         139.6778  140.7423  172.1063 H       1  UNL1        0.2922
     29 C         141.3701  138.4641  158.6087 C.3     1  UNL1        0.0252
     30 C         140.1308  138.2361  157.7951 C.3     1  UNL1        0.0339
     31 C         140.1446  137.2449  156.6692 C.3     1  UNL1        0.1422
     32 O         141.3977  136.4818  156.3571 O.3     1  UNL1       -0.3538
     33 C         142.6370  136.7098  157.1708 C.3     1  UNL1        0.1422
     34 C         142.6232  137.7009  158.2966 C.3     1  UNL1        0.0339
@<TRIPOS>BOND
     1    21    22    1
     2    22    23   ar
     3    23    24   ar
     4    24    25   ar
     5    25    15    1
     6    15    16   ar
     7    16    17   ar
     8    17    18   ar
     9     1    18    1
    10     1     2    1
    11     2     3    1
    12     3     4    2
    13     4     5    1
    14     5     6    2
    15     6     7    1
    16     7     8    1
    17     8     9    2
    18     9    10    1
    19    10    11    2
    20     4    12    1
    21    12    29    1
    22    29    30    1
    23    30    31    1
    24    31    32    1
    25    32    33    1
    26    33    34    1
    27    12    13    1
    28    18    19   ar
    29    25    26   ar
    30    26    27   ar
    31    27    22   ar
    32    19    15   ar
    33    13     1    1
    34    11     3    1
    35    34    29    1
    36    11     6    1
    37    21    28    1
    38    13    14    1
    39    19    20    1
@<TRIPOS>MOLECULE
*****
 34 39 0 0 0
SMALL
GASTEIGER

@<TRIPOS>ATOM
      1 C         143.1998  142.9492  157.4522 C.3     1  UNL1        0.1161
      2 C         143.2736  143.2445  158.9210 C.3     1  UNL1        0.0510
      3 C         142.1110  143.8893  159.6156 C.2     1  UNL1       -0.0044
      4 C         140.8746  144.2388  158.8415 C.2     1  UNL1        0.0689
      5 N         139.8947  144.8630  159.7902 N.2     1  UNL1       -0.2526
      6 C         140.5254  144.8993  161.1507 C.2     1  UNL1        0.0627
      7 C         140.0294  145.4025  162.4738 C.3     1  UNL1        0.0717
      8 C         140.9032  145.3040  163.6890 C.2     1  UNL1       -0.0198
      9 C         142.2729  144.7022  163.5811 C.2     1  UNL1       -0.0042
     10 C         142.7689  144.1990  162.2580 C.2     1  UNL1        0.0006
     11 C         141.8952  144.2975  161.0428 C.2     1  UNL1        0.0111
     12 C         140.8009  143.9435  157.3727 C.3     1  UNL1        0.0949
     13 N         141.9635  143.2987  156.6780 N.3     1  UNL1       -0.2887
     14 H         142.2517  143.9345  155.9343 H       1  UNL1        0.1239
     15 C         146.4773  141.9833  155.6108 C.ar    1  UNL1        0.0769
     16 C         145.8260  140.6411  155.7664 C.ar    1  UNL1        0.1171
     17 N         144.5190  140.8396  156.4751 N.ar    1  UNL1       -0.2282
     18 C         144.3625  142.3044  156.7575 C.ar    1  UNL1        0.1318
     19 N         145.5728  143.0113  156.2233 N.ar    1  UNL1       -0.3397
     20 H         145.7436  143.9799  156.2671 H       1  UNL1        0.1671
     21 O         151.7712  143.0526  152.9970 O.3     1  UNL1       -0.5055
     22 C         150.4477  142.7853  153.6505 C.ar    1  UNL1        0.1337
     23 C         150.3692  141.8770  154.8415 C.ar    1  UNL1        0.0367
     24 C         149.0458  141.6097  155.4949 C.ar    1  UNL1        0.0046
     25 C         147.8008  142.2507  154.9573 C.ar    1  UNL1        0.0174
     26 C         147.8793  143.1590  153.7662 C.ar    1  UNL1        0.0046
     27 C         149.2027  143.4263  153.1128 C.ar    1  UNL1        0.0367
     28 H         152.5489  142.6522  153.3328 H       1  UNL1        0.2922
     29 C         139.5646  144.2930  156.5985 C.3     1  UNL1        0.0252
     30 C         138.4400  143.3058  156.4957 C.3     1  UNL1        0.0339
     31 C         137.2036  143.6553  155.7215 C.3     1  UNL1        0.1422
     32 O         137.0919  144.9920  155.0502 O.3     1  UNL1       -0.3538
     33 C         138.2166  145.9793  155.1530 C.3     1  UNL1        0.1422
     34 C         139.4528  145.6298  155.9272 C.3     1  UNL1        0.0339
@<TRIPOS>BOND
     1    21    22    1
     2    22    23   ar
     3    23    24   ar
     4    24    25   ar
     5    25    15    1
     6    15    16   ar
     7    16    17   ar
     8    17    18   ar
     9     1    18    1
    10     1     2    1
    11     2     3    1
    12     3     4    2
    13     4     5    1
    14     5     6    2
    15     6     7    1
    16     7     8    1
    17     8     9    2
    18     9    10    1
    19    10    11    2
    20     4    12    1
    21    12    29    1
    22    29    30    1
    23    30    31    1
    24    31    32    1
    25    32    33    1
    26    33    34    1
    27    12    13    1
    28    18    19   ar
    29    25    26   ar
    30    26    27   ar
    31    27    22   ar
    32    19    15   ar
    33    13     1    1
    34    11     3    1
    35    34    29    1
    36    11     6    1
    37    21    28    1
    38    13    14    1
    39    19    20    1
@<TRIPOS>MOLECULE
*****
 34 39 0 0 0
SMALL
GASTEIGER

@<TRIPOS>ATOM
      1 C         140.7844  144.1955  160.4501 C.3     1  UNL1        0.1161
      2 C         140.1914  145.2420  159.5539 C.3     1  UNL1        0.0510
      3 C         140.5908  145.3064  158.1095 C.2     1  UNL1       -0.0044
      4 C         141.5833  144.3243  157.5613 C.2     1  UNL1        0.0689
      5 N         141.7836  144.6308  156.1067 N.2     1  UNL1       -0.2526
      6 C         140.9150  145.8023  155.7559 C.2     1  UNL1        0.0627
      7 C         140.7002  146.5428  154.4693 C.3     1  UNL1        0.0717
      8 C         139.7481  147.7008  154.4204 C.2     1  UNL1       -0.0198
      9 C         139.0109  148.1184  155.6583 C.2     1  UNL1       -0.0042
     10 C         139.2258  147.3779  156.9449 C.2     1  UNL1        0.0006
     11 C         140.1778  146.2199  156.9937 C.2     1  UNL1        0.0111
     12 C         142.1763  143.2777  158.4575 C.3     1  UNL1        0.0949
     13 N         141.7769  143.2134  159.9019 N.3     1  UNL1       -0.2887
     14 H         142.6311  143.3216  160.4488 H       1  UNL1        0.1239
     15 C         139.9792  143.3122  164.1429 C.ar    1  UNL1        0.0769
     16 C         139.5615  144.7519  164.0916 C.ar    1  UNL1        0.1171
     17 N         139.8123  145.2581  162.7020 N.ar    1  UNL1       -0.2282
     18 C         140.3850  144.1311  161.8946 C.ar    1  UNL1        0.1318
     19 N         140.4881  142.9285  162.7850 N.ar    1  UNL1       -0.3397
     20 H         140.8299  142.0429  162.5241 H       1  UNL1        0.1671
     21 O         139.6686  139.7186  168.9377 O.3     1  UNL1       -0.5055
     22 C         139.7463  140.6170  167.7390 C.ar    1  UNL1        0.1337
     23 C         139.2187  140.1486  166.4153 C.ar    1  UNL1        0.0367
     24 C         139.2963  141.0470  165.2166 C.ar    1  UNL1        0.0046
     25 C         139.9016  142.4138  165.3417 C.ar    1  UNL1        0.0174
     26 C         140.4292  142.8821  166.6654 C.ar    1  UNL1        0.0046
     27 C         140.3515  141.9837  167.8640 C.ar    1  UNL1        0.0367
     28 H         139.2906  138.8648  168.8596 H       1  UNL1        0.2922
     29 C         143.1687  142.2956  157.9094 C.3     1  UNL1        0.0252
     30 C         144.6070  142.6910  157.7527 C.3     1  UNL1        0.0339
     31 C         145.5995  141.7088  157.2045 C.3     1  UNL1        0.1422
     32 O         145.1534  140.3312  156.8130 O.3     1  UNL1       -0.3538
     33 C         143.7150  139.9358  156.9697 C.3     1  UNL1        0.1422
     34 C         142.7227  140.9179  157.5178 C.3     1  UNL1        0.0339
@<TRIPOS>BOND
     1    21    22    1
     2    22    23   ar
     3    23    24   ar
     4    24    25   ar
     5    25    15    1
     6    15    16   ar
     7    16    17   ar
     8    17    18   ar
     9     1    18    1
    10     1     2    1
    11     2     3    1
    12     3     4    2
    13     4     5    1
    14     5     6    2
    15     6     7    1
    16     7     8    1
    17     8     9    2
    18     9    10    1
    19    10    11    2
    20     4    12    1
    21    12    29    1
    22    29    30    1
    23    30    31    1
    24    31    32    1
    25    32    33    1
    26    33    34    1
    27    12    13    1
    28    18    19   ar
    29    25    26   ar
    30    26    27   ar
    31    27    22   ar
    32    19    15   ar
    33    13     1    1
    34    11     3    1
    35    34    29    1
    36    11     6    1
    37    21    28    1
    38    13    14    1
    39    19    20    1
@<TRIPOS>MOLECULE
*****
 34 39 0 0 0
SMALL
GASTEIGER

@<TRIPOS>ATOM
      1 C         142.1373  140.0194  160.5568 C.3     1  UNL1        0.1161
      2 C         142.5941  139.3703  161.8297 C.3     1  UNL1        0.0510
      3 C         142.2594  139.9945  163.1519 C.2     1  UNL1       -0.0044
      4 C         141.4679  141.2677  163.2013 C.2     1  UNL1        0.0689
      5 N         141.2904  141.6475  164.6416 N.2     1  UNL1       -0.2526
      6 C         141.9721  140.6089  165.4822 C.2     1  UNL1        0.0627
      7 C         142.1249  140.4615  166.9671 C.3     1  UNL1        0.0717
      8 C         142.8765  139.2925  167.5313 C.2     1  UNL1       -0.0198
      9 C         143.4754  138.2709  166.6106 C.2     1  UNL1       -0.0042
     10 C         143.3226  138.4183  165.1258 C.2     1  UNL1        0.0006
     11 C         142.5710  139.5873  164.5616 C.2     1  UNL1        0.0111
     12 C         141.0112  141.9168  161.9285 C.3     1  UNL1        0.0949
     13 N         141.3459  141.2927  160.6062 N.3     1  UNL1       -0.2887
     14 H         141.8729  141.9877  160.0775 H       1  UNL1        0.1239
     15 C         142.8378  137.7561  157.4824 C.ar    1  UNL1        0.0769
     16 C         143.1365  139.1132  156.9173 C.ar    1  UNL1        0.1171
     17 N         142.9104  140.1262  158.0002 N.ar    1  UNL1       -0.2282
     18 C         142.4721  139.3952  159.2345 C.ar    1  UNL1        0.1318
     19 N         142.4272  137.9305  158.9145 N.ar    1  UNL1       -0.3397
     20 H         142.1729  137.2100  159.5354 H       1  UNL1        0.1671
     21 O         143.2188  132.5454  154.5322 O.3     1  UNL1       -0.5055
     22 C         143.1236  133.8481  155.2698 C.ar    1  UNL1        0.1337
     23 C         143.2659  133.8768  156.7627 C.ar    1  UNL1        0.0367
     24 C         143.1706  135.1795  157.5002 C.ar    1  UNL1        0.0046
     25 C         142.9331  136.4534  156.7448 C.ar    1  UNL1        0.0174
     26 C         142.7908  136.4247  155.2518 C.ar    1  UNL1        0.0046
     27 C         142.8860  135.1221  154.5143 C.ar    1  UNL1        0.0367
     28 H         143.3672  131.7496  155.0040 H       1  UNL1        0.2922
     29 C         140.2197  143.1901  161.9779 C.3     1  UNL1        0.0252
     30 C         138.8826  143.2161  162.6571 C.3     1  UNL1        0.0339
     31 C         138.0912  144.4894  162.7065 C.3     1  UNL1        0.1422
     32 O         138.6369  145.7366  162.0767 O.3     1  UNL1       -0.3538
     33 C         139.9740  145.7106  161.3974 C.3     1  UNL1        0.1422
     34 C         140.7654  144.4373  161.3481 C.3     1  UNL1        0.0339
@<TRIPOS>BOND
     1    21    22    1
     2    22    23   ar
     3    23    24   ar
     4    24    25   ar
     5    25    15    1
     6    15    16   ar
     7    16    17   ar
     8    17    18   ar
     9     1    18    1
    10     1     2    1
    11     2     3    1
    12     3     4    2
    13     4     5    1
    14     5     6    2
    15     6     7    1
    16     7     8    1
    17     8     9    2
    18     9    10    1
    19    10    11    2
    20     4    12    1
    21    12    29    1
    22    29    30    1
    23    30    31    1
    24    31    32    1
    25    32    33    1
    26    33    34    1
    27    12    13    1
    28    18    19   ar
    29    25    26   ar
    30    26    27   ar
    31    27    22   ar
    32    19    15   ar
    33    13     1    1
    34    11     3    1
    35    34    29    1
    36    11     6    1
    37    21    28    1
    38    13    14    1
    39    19    20    1
@<TRIPOS>MOLECULE
*****
 34 39 0 0 0
SMALL
GASTEIGER

@<TRIPOS>ATOM
      1 C         142.4762  139.6055  158.2038 C.3     1  UNL1        0.1161
      2 C         143.1515  139.5985  159.5432 C.3     1  UNL1        0.0510
      3 C         143.4198  140.8914  160.2546 C.2     1  UNL1       -0.0044
      4 C         143.0128  142.1914  159.6267 C.2     1  UNL1        0.0689
      5 N         143.4051  143.2993  160.5587 N.2     1  UNL1       -0.2526
      6 C         144.0546  142.6840  161.7627 C.2     1  UNL1        0.0627
      7 C         144.6389  143.2865  163.0059 C.3     1  UNL1        0.0717
      8 C         145.2323  142.4009  164.0611 C.2     1  UNL1       -0.0198
      9 C         145.2414  140.9127  163.8731 C.2     1  UNL1       -0.0042
     10 C         144.6571  140.3102  162.6300 C.2     1  UNL1        0.0006
     11 C         144.0637  141.1958  161.5748 C.2     1  UNL1        0.0111
     12 C         142.3375  142.1984  158.2873 C.3     1  UNL1        0.0949
     13 N         142.0692  140.9055  157.5758 N.3     1  UNL1       -0.2887
     14 H         142.5464  140.9600  156.6760 H       1  UNL1        0.1239
     15 C         142.4537  136.0546  156.6364 C.ar    1  UNL1        0.0769
     16 C         141.1368  136.5906  156.1587 C.ar    1  UNL1        0.1171
     17 N         140.9849  137.9860  156.6877 N.ar    1  UNL1       -0.2282
     18 C         142.2080  138.3124  157.4923 C.ar    1  UNL1        0.1318
     19 N         143.1158  137.1188  157.4606 N.ar    1  UNL1       -0.3397
     20 H         143.9923  137.0465  157.9031 H       1  UNL1        0.1671
     21 O         144.6824  130.6100  155.4575 O.3     1  UNL1       -0.5055
     22 C         144.1252  131.9712  155.7523 C.ar    1  UNL1        0.1337
     23 C         144.4408  132.6448  157.0548 C.ar    1  UNL1        0.0367
     24 C         143.8837  134.0060  157.3495 C.ar    1  UNL1        0.0046
     25 C         143.0109  134.6934  156.3417 C.ar    1  UNL1        0.0174
     26 C         142.6953  134.0198  155.0391 C.ar    1  UNL1        0.0046
     27 C         143.2525  132.6587  154.7444 C.ar    1  UNL1        0.0367
     28 H         145.2276  130.1806  156.0870 H       1  UNL1        0.2922
     29 C         141.9304  143.4984  157.6593 C.3     1  UNL1        0.0252
     30 C         142.5933  143.9610  156.3958 C.3     1  UNL1        0.0339
     31 C         142.1862  145.2611  155.7679 C.3     1  UNL1        0.1422
     32 O         141.1163  146.0985  156.4035 O.3     1  UNL1       -0.3538
     33 C         140.4534  145.6359  157.6671 C.3     1  UNL1        0.1422
     34 C         140.8605  144.3359  158.2950 C.3     1  UNL1        0.0339
@<TRIPOS>BOND
     1    21    22    1
     2    22    23   ar
     3    23    24   ar
     4    24    25   ar
     5    25    15    1
     6    15    16   ar
     7    16    17   ar
     8    17    18   ar
     9     1    18    1
    10     1     2    1
    11     2     3    1
    12     3     4    2
    13     4     5    1
    14     5     6    2
    15     6     7    1
    16     7     8    1
    17     8     9    2
    18     9    10    1
    19    10    11    2
    20     4    12    1
    21    12    29    1
    22    29    30    1
    23    30    31    1
    24    31    32    1
    25    32    33    1
    26    33    34    1
    27    12    13    1
    28    18    19   ar
    29    25    26   ar
    30    26    27   ar
    31    27    22   ar
    32    19    15   ar
    33    13     1    1
    34    11     3    1
    35    34    29    1
    36    11     6    1
    37    21    28    1
    38    13    14    1
    39    19    20    1
@<TRIPOS>MOLECULE
*****
 34 39 0 0 0
SMALL
GASTEIGER

@<TRIPOS>ATOM
      1 C         140.1399  143.7357  158.9375 C.3     1  UNL1        0.1161
      2 C         139.7173  144.2539  160.2802 C.3     1  UNL1        0.0510
      3 C         140.0717  143.4929  161.5233 C.2     1  UNL1       -0.0044
      4 C         140.8486  142.2137  161.4237 C.2     1  UNL1        0.0689
      5 N         141.0512  141.6852  162.8128 N.2     1  UNL1       -0.2526
      6 C         140.3995  142.6377  163.7709 C.2     1  UNL1        0.0627
      7 C         140.2791  142.6320  165.2660 C.3     1  UNL1        0.0717
      8 C         139.5533  143.7437  165.9642 C.2     1  UNL1       -0.0198
      9 C         138.9479  144.8610  165.1672 C.2     1  UNL1       -0.0042
     10 C         139.0683  144.8666  163.6721 C.2     1  UNL1        0.0006
     11 C         139.7941  143.7550  162.9739 C.2     1  UNL1        0.0111
     12 C         141.2712  141.6955  160.0810 C.3     1  UNL1        0.0949
     13 N         140.9169  142.4564  158.8379 N.3     1  UNL1       -0.2887
     14 H         140.3707  141.8251  158.2518 H       1  UNL1        0.1239
     15 C         139.4478  146.3073  156.1138 C.ar    1  UNL1        0.0769
     16 C         139.0327  145.0283  155.4491 C.ar    1  UNL1        0.1171
     17 N         139.2415  143.9093  156.4259 N.ar    1  UNL1       -0.2282
     18 C         139.7855  144.4967  157.6943 C.ar    1  UNL1        0.1318
     19 N         139.9131  145.9787  157.5015 N.ar    1  UNL1       -0.3397
     20 H         140.2441  146.6227  158.1685 H       1  UNL1        0.1671
     21 O         139.2770  151.7773  153.6541 O.3     1  UNL1       -0.5055
     22 C         139.3197  150.4098  154.2691 C.ar    1  UNL1        0.1337
     23 C         138.6221  150.1510  155.5715 C.ar    1  UNL1        0.0367
     24 C         138.6648  148.7836  156.1864 C.ar    1  UNL1        0.0046
     25 C         139.4051  147.6748  155.4988 C.ar    1  UNL1        0.0174
     26 C         140.1027  147.9336  154.1964 C.ar    1  UNL1        0.0046
     27 C         140.0600  149.3011  153.5815 C.ar    1  UNL1        0.0367
     28 H         138.8146  152.4699  154.0836 H       1  UNL1        0.2922
     29 C         142.0481  140.4162  159.9814 C.3     1  UNL1        0.0252
     30 C         143.3044  140.2376  160.7811 C.3     1  UNL1        0.0339
     31 C         144.0814  138.9583  160.6815 C.3     1  UNL1        0.1422
     32 O         143.6019  137.8577  159.7821 O.3     1  UNL1       -0.3538
     33 C         142.3455  138.0364  158.9823 C.3     1  UNL1        0.1422
     34 C         141.5687  139.3156  159.0820 C.3     1  UNL1        0.0339
@<TRIPOS>BOND
     1    21    22    1
     2    22    23   ar
     3    23    24   ar
     4    24    25   ar
     5    25    15    1
     6    15    16   ar
     7    16    17   ar
     8    17    18   ar
     9     1    18    1
    10     1     2    1
    11     2     3    1
    12     3     4    2
    13     4     5    1
    14     5     6    2
    15     6     7    1
    16     7     8    1
    17     8     9    2
    18     9    10    1
    19    10    11    2
    20     4    12    1
    21    12    29    1
    22    29    30    1
    23    30    31    1
    24    31    32    1
    25    32    33    1
    26    33    34    1
    27    12    13    1
    28    18    19   ar
    29    25    26   ar
    30    26    27   ar
    31    27    22   ar
    32    19    15   ar
    33    13     1    1
    34    11     3    1
    35    34    29    1
    36    11     6    1
    37    21    28    1
    38    13    14    1
    39    19    20    1
