@<TRIPOS>MOLECULE
*****
 28 29 0 0 0
SMALL
GASTEIGER

@<TRIPOS>ATOM
      1 C         138.4972  139.1696  164.9632 C.ar    1  UNL1        0.1558
      2 C         138.7819  138.0637  163.9905 C.ar    1  UNL1        0.1342
      3 N         138.5504  138.2769  162.5239 N.ar    1  UNL1       -0.2263
      4 C         138.0342  139.5958  162.0300 C.ar    1  UNL1        0.2025
      5 C         137.7495  140.7016  163.0026 C.ar    1  UNL1        0.2543
      6 N         137.9810  140.4885  164.4693 N.ar    1  UNL1       -0.1931
      7 N         138.7287  138.9564  166.4298 N.pl3   1  UNL1       -0.2820
      8 H         138.1522  138.3381  166.9344 H       1  UNL1        0.1551
      9 C         142.0582  141.1432  168.5233 C.ar    1  UNL1        0.0749
     10 C         142.2950  140.5300  167.1751 C.ar    1  UNL1        0.1097
     11 N         141.1852  139.8011  166.4772 N.ar    1  UNL1       -0.2283
     12 C         139.8385  139.6854  167.1277 C.ar    1  UNL1        0.1345
     13 C         139.6017  140.2986  168.4759 C.ar    1  UNL1        0.0494
     14 C         140.7115  141.0275  169.1737 C.ar    1  UNL1        0.0568
     15 N         140.4746  141.6407  170.5221 N.pl3   1  UNL1       -0.3307
     16 C         139.8234  142.9877  170.6294 C.3     1  UNL1        0.1085
     17 H         140.7466  141.1591  171.3365 H       1  UNL1        0.1469
     18 C         144.2778  142.6011  169.9190 C.1     1  UNL1       -0.0091
     19 C         143.1680  141.8721  169.2212 C.1     1  UNL1       -0.0484
     20 C         137.8027  139.8089  160.5633 C.1     1  UNL1        0.1246
     21 N         137.5712  140.0219  159.0967 N.1     1  UNL1       -0.1891
     22 O         137.2333  142.0205  162.5087 O.3     1  UNL1       -0.4610
     23 C         138.1843  143.1551  162.2667 C.3     1  UNL1        0.1836
     24 C         138.9554  143.2263  160.9820 C.3     1  UNL1        0.0488
     25 C         138.3643  144.2183  163.3094 C.3     1  UNL1        0.1163
     26 N         139.6019  144.2360  164.1566 N.3     1  UNL1       -0.2673
     27 C         139.6066  143.5524  165.4919 C.3     1  UNL1        0.0898
     28 C         140.8349  144.9372  163.6687 C.3     1  UNL1        0.0898
@<TRIPOS>BOND
     1    18    19    3
     2    19     9    1
     3     9    10   ar
     4    10    11   ar
     5    11    12   ar
     6    12     7    1
     7     7     1    1
     8     1     2   ar
     9     2     3   ar
    10     3     4   ar
    11     4    20    1
    12    20    21    3
    13     4     5   ar
    14     5    22    1
    15    22    23    1
    16    23    24    1
    17    23    25    1
    18    25    26    1
    19    26    27    1
    20    26    28    1
    21     5     6   ar
    22    12    13   ar
    23    13    14   ar
    24    14    15    1
    25    15    16    1
    26    14     9   ar
    27     6     1   ar
    28     7     8    1
    29    15    17    1
@<TRIPOS>MOLECULE
*****
 28 29 0 0 0
SMALL
GASTEIGER

@<TRIPOS>ATOM
      1 C         138.4008  139.0496  164.9611 C.ar    1  UNL1        0.1558
      2 C         138.7537  137.9891  163.9606 C.ar    1  UNL1        0.1342
      3 N         138.5902  138.2576  162.4939 N.ar    1  UNL1       -0.2263
      4 C         138.0739  139.5865  162.0277 C.ar    1  UNL1        0.2025
      5 C         137.7211  140.6470  163.0281 C.ar    1  UNL1        0.2543
      6 N         137.8845  140.3785  164.4949 N.ar    1  UNL1       -0.1931
      7 N         138.5642  138.7811  166.4278 N.pl3   1  UNL1       -0.2820
      8 H         138.0880  138.0280  166.8464 H       1  UNL1        0.1551
      9 C         141.2313  141.4180  168.9144 C.ar    1  UNL1        0.0749
     10 C         140.0378  140.7573  169.5380 C.ar    1  UNL1        0.1097
     11 N         139.1487  139.8783  168.7091 N.ar    1  UNL1       -0.2283
     12 C         139.4532  139.6601  167.2567 C.ar    1  UNL1        0.1345
     13 C         140.6468  140.3208  166.6331 C.ar    1  UNL1        0.0494
     14 C         141.5358  141.1998  167.4620 C.ar    1  UNL1        0.0568
     15 N         142.7293  141.8606  166.8384 N.pl3   1  UNL1       -0.3307
     16 C         143.2346  141.3928  165.5058 C.3     1  UNL1        0.1085
     17 H         143.1811  142.6013  167.3037 H       1  UNL1        0.1469
     18 C         143.0093  143.1760  170.5722 C.1     1  UNL1       -0.0091
     19 C         142.1203  142.2970  169.7433 C.1     1  UNL1       -0.0484
     20 C         137.9105  139.8550  160.5609 C.1     1  UNL1        0.1246
     21 N         137.7471  140.1234  159.0942 N.1     1  UNL1       -0.1891
     22 O         137.2048  141.9759  162.5619 O.3     1  UNL1       -0.4610
     23 C         138.0155  143.2173  162.7896 C.3     1  UNL1        0.1836
     24 C         137.7723  144.0589  164.0072 C.3     1  UNL1        0.0488
     25 C         139.0693  143.6170  161.7998 C.3     1  UNL1        0.1163
     26 N         140.0309  144.7191  162.1321 N.3     1  UNL1       -0.2673
     27 C         139.7312  146.1278  161.7128 C.3     1  UNL1        0.0898
     28 C         141.2923  144.4125  162.8838 C.3     1  UNL1        0.0898
@<TRIPOS>BOND
     1    18    19    3
     2    19     9    1
     3     9    10   ar
     4    10    11   ar
     5    11    12   ar
     6    12     7    1
     7     7     1    1
     8     1     2   ar
     9     2     3   ar
    10     3     4   ar
    11     4    20    1
    12    20    21    3
    13     4     5   ar
    14     5    22    1
    15    22    23    1
    16    23    24    1
    17    23    25    1
    18    25    26    1
    19    26    27    1
    20    26    28    1
    21     5     6   ar
    22    12    13   ar
    23    13    14   ar
    24    14    15    1
    25    15    16    1
    26    14     9   ar
    27     6     1   ar
    28     7     8    1
    29    15    17    1
@<TRIPOS>MOLECULE
*****
 28 29 0 0 0
SMALL
GASTEIGER

@<TRIPOS>ATOM
      1 C         142.6128  139.5183  168.0173 C.ar    1  UNL1        0.1558
      2 C         142.4303  139.3141  169.4921 C.ar    1  UNL1        0.1342
      3 N         141.5704  140.2580  170.2792 N.ar    1  UNL1       -0.2263
      4 C         140.8930  141.4062  169.5916 C.ar    1  UNL1        0.2025
      5 C         141.0755  141.6104  168.1168 C.ar    1  UNL1        0.2543
      6 N         141.9354  140.6665  167.3296 N.ar    1  UNL1       -0.1931
      7 N         143.4727  138.5744  167.2302 N.pl3   1  UNL1       -0.2820
      8 H         144.0821  137.9581  167.6971 H       1  UNL1        0.1551
      9 C         143.2669  138.5598  162.7349 C.ar    1  UNL1        0.0749
     10 C         144.3899  139.2690  163.4320 C.ar    1  UNL1        0.1097
     11 N         144.4585  139.2739  164.9305 N.ar    1  UNL1       -0.2283
     12 C         143.4041  138.5695  165.7318 C.ar    1  UNL1        0.1345
     13 C         142.2812  137.8603  165.0347 C.ar    1  UNL1        0.0494
     14 C         142.2126  137.8554  163.5363 C.ar    1  UNL1        0.0568
     15 N         141.0896  137.1462  162.8392 N.pl3   1  UNL1       -0.3307
     16 C         139.7704  137.8345  162.6501 C.3     1  UNL1        0.1085
     17 H         141.2184  136.2288  162.5058 H       1  UNL1        0.1469
     18 C         143.1298  138.5501  159.7381 C.1     1  UNL1       -0.0091
     19 C         143.1984  138.5549  161.2365 C.1     1  UNL1       -0.0484
     20 C         140.0330  142.3501  170.3787 C.1     1  UNL1        0.1246
     21 N         139.1732  143.2940  171.1659 N.1     1  UNL1       -0.1891
     22 O         140.3980  142.7586  167.4291 O.3     1  UNL1       -0.4610
     23 C         140.2106  142.7365  165.9410 C.3     1  UNL1        0.1836
     24 C         139.0941  141.9370  165.3375 C.3     1  UNL1        0.0488
     25 C         141.1396  143.5139  165.0565 C.3     1  UNL1        0.1163
     26 N         142.2599  142.8139  164.3460 N.3     1  UNL1       -0.2673
     27 C         141.9942  142.0837  163.0629 C.3     1  UNL1        0.0898
     28 C         143.6460  142.8439  164.9187 C.3     1  UNL1        0.0898
@<TRIPOS>BOND
     1    18    19    3
     2    19     9    1
     3     9    10   ar
     4    10    11   ar
     5    11    12   ar
     6    12     7    1
     7     7     1    1
     8     1     2   ar
     9     2     3   ar
    10     3     4   ar
    11     4    20    1
    12    20    21    3
    13     4     5   ar
    14     5    22    1
    15    22    23    1
    16    23    24    1
    17    23    25    1
    18    25    26    1
    19    26    27    1
    20    26    28    1
    21     5     6   ar
    22    12    13   ar
    23    13    14   ar
    24    14    15    1
    25    15    16    1
    26    14     9   ar
    27     6     1   ar
    28     7     8    1
    29    15    17    1
@<TRIPOS>MOLECULE
*****
 28 29 0 0 0
SMALL
GASTEIGER

@<TRIPOS>ATOM
      1 C         143.0300  142.4821  167.3491 C.ar    1  UNL1        0.1558
      2 C         143.1528  142.2170  168.8204 C.ar    1  UNL1        0.1342
      3 N         142.0181  141.5779  169.5647 N.ar    1  UNL1       -0.2263
      4 C         140.7605  141.2039  168.8377 C.ar    1  UNL1        0.2025
      5 C         140.6376  141.4690  167.3664 C.ar    1  UNL1        0.2543
      6 N         141.7724  142.1081  166.6221 N.ar    1  UNL1       -0.1931
      7 N         144.1647  143.1212  166.6049 N.pl3   1  UNL1       -0.2820
      8 H         144.8523  143.6269  167.0954 H       1  UNL1        0.1551
      9 C         144.4259  142.7270  162.1298 C.ar    1  UNL1        0.0749
     10 C         144.1727  144.0686  162.7510 C.ar    1  UNL1        0.1097
     11 N         144.0857  144.2000  164.2427 N.ar    1  UNL1       -0.2283
     12 C         144.2517  142.9898  165.1132 C.ar    1  UNL1        0.1345
     13 C         144.5049  141.6482  164.4920 C.ar    1  UNL1        0.0494
     14 C         144.5920  141.5168  163.0003 C.ar    1  UNL1        0.0568
     15 N         144.8452  140.1751  162.3791 N.pl3   1  UNL1       -0.3307
     16 C         143.8085  139.0955  162.4772 C.3     1  UNL1        0.1085
     17 H         145.6918  140.0031  161.9069 H       1  UNL1        0.1469
     18 C         144.6000  142.4642  159.1464 C.1     1  UNL1       -0.0091
     19 C         144.5130  142.5956  160.6381 C.1     1  UNL1       -0.0484
     20 C         139.6258  140.5648  169.5820 C.1     1  UNL1        0.1246
     21 N         138.4911  139.9257  170.3262 N.1     1  UNL1       -0.1891
     22 O         139.3800  141.0949  166.6394 O.3     1  UNL1       -0.4610
     23 C         139.2749  139.7618  165.9597 C.3     1  UNL1        0.1836
     24 C         138.2337  138.7757  166.3997 C.3     1  UNL1        0.0488
     25 C         140.2109  139.4149  164.8402 C.3     1  UNL1        0.1163
     26 N         141.2420  138.3422  165.0299 N.3     1  UNL1       -0.2673
     27 C         141.0558  137.0005  164.3854 C.3     1  UNL1        0.0898
     28 C         142.4593  138.6111  165.8640 C.3     1  UNL1        0.0898
@<TRIPOS>BOND
     1    18    19    3
     2    19     9    1
     3     9    10   ar
     4    10    11   ar
     5    11    12   ar
     6    12     7    1
     7     7     1    1
     8     1     2   ar
     9     2     3   ar
    10     3     4   ar
    11     4    20    1
    12    20    21    3
    13     4     5   ar
    14     5    22    1
    15    22    23    1
    16    23    24    1
    17    23    25    1
    18    25    26    1
    19    26    27    1
    20    26    28    1
    21     5     6   ar
    22    12    13   ar
    23    13    14   ar
    24    14    15    1
    25    15    16    1
    26    14     9   ar
    27     6     1   ar
    28     7     8    1
    29    15    17    1
@<TRIPOS>MOLECULE
*****
 28 29 0 0 0
SMALL
GASTEIGER

@<TRIPOS>ATOM
      1 C         142.4149  140.0206  167.7258 C.ar    1  UNL1        0.1558
      2 C         142.6094  140.2635  169.1933 C.ar    1  UNL1        0.1342
      3 N         141.9988  141.4707  169.8411 N.ar    1  UNL1       -0.2263
      4 C         141.1936  142.4351  169.0215 C.ar    1  UNL1        0.2025
      5 C         140.9991  142.1923  167.5542 C.ar    1  UNL1        0.2543
      6 N         141.6098  140.9851  166.9063 N.ar    1  UNL1       -0.1931
      7 N         143.0255  138.8134  167.0780 N.pl3   1  UNL1       -0.2820
      8 H         143.4891  138.1412  167.6280 H       1  UNL1        0.1551
      9 C         142.7384  138.2642  162.6209 C.ar    1  UNL1        0.0749
     10 C         141.7528  137.5854  163.5253 C.ar    1  UNL1        0.1097
     11 N         141.8486  137.7684  165.0110 N.ar    1  UNL1       -0.2283
     12 C         142.9298  138.6303  165.5923 C.ar    1  UNL1        0.1345
     13 C         143.9153  139.3092  164.6880 C.ar    1  UNL1        0.0494
     14 C         143.8196  139.1261  163.2023 C.ar    1  UNL1        0.0568
     15 N         144.8052  139.8050  162.2979 N.pl3   1  UNL1       -0.3307
     16 C         144.7678  141.2953  162.1320 C.3     1  UNL1        0.1085
     17 H         145.4765  139.2724  161.8133 H       1  UNL1        0.1469
     18 C         142.5469  137.8981  159.6495 C.1     1  UNL1       -0.0091
     19 C         142.6426  138.0812  161.1352 C.1     1  UNL1       -0.0484
     20 C         140.5830  143.6424  169.6694 C.1     1  UNL1        0.1246
     21 N         139.9724  144.8496  170.3173 N.1     1  UNL1       -0.1891
     22 O         140.1940  143.1568  166.7346 O.3     1  UNL1       -0.4610
     23 C         140.2600  143.1057  165.2369 C.3     1  UNL1        0.1836
     24 C         141.3120  143.8856  164.5055 C.3     1  UNL1        0.0488
     25 C         139.2741  142.2746  164.4707 C.3     1  UNL1        0.1163
     26 N         138.3498  142.9261  163.4852 N.3     1  UNL1       -0.2673
     27 C         137.7323  144.2559  163.8020 C.3     1  UNL1        0.0898
     28 C         138.0430  142.2479  162.1829 C.3     1  UNL1        0.0898
@<TRIPOS>BOND
     1    18    19    3
     2    19     9    1
     3     9    10   ar
     4    10    11   ar
     5    11    12   ar
     6    12     7    1
     7     7     1    1
     8     1     2   ar
     9     2     3   ar
    10     3     4   ar
    11     4    20    1
    12    20    21    3
    13     4     5   ar
    14     5    22    1
    15    22    23    1
    16    23    24    1
    17    23    25    1
    18    25    26    1
    19    26    27    1
    20    26    28    1
    21     5     6   ar
    22    12    13   ar
    23    13    14   ar
    24    14    15    1
    25    15    16    1
    26    14     9   ar
    27     6     1   ar
    28     7     8    1
    29    15    17    1
@<TRIPOS>MOLECULE
*****
 28 29 0 0 0
SMALL
GASTEIGER

@<TRIPOS>ATOM
      1 C         139.5798  140.0275  167.7861 C.ar    1  UNL1        0.1558
      2 C         139.2806  140.3411  169.2222 C.ar    1  UNL1        0.1342
      3 N         140.1817  141.2598  169.9928 N.ar    1  UNL1       -0.2263
      4 C         141.3820  141.8651  169.3274 C.ar    1  UNL1        0.2025
      5 C         141.6813  141.5516  167.8914 C.ar    1  UNL1        0.2543
      6 N         140.7802  140.6328  167.1208 N.ar    1  UNL1       -0.1931
      7 N         138.6787  139.1088  167.0156 N.pl3   1  UNL1       -0.2820
      8 H         138.1961  138.3880  167.4812 H       1  UNL1        0.1551
      9 C         138.1816  139.6469  162.5756 C.ar    1  UNL1        0.0749
     10 C         138.7029  138.3501  163.1202 C.ar    1  UNL1        0.1097
     11 N         138.8686  138.1708  164.6002 N.ar    1  UNL1       -0.2283
     12 C         138.5130  139.2881  165.5356 C.ar    1  UNL1        0.1345
     13 C         137.9917  140.5849  164.9909 C.ar    1  UNL1        0.0494
     14 C         137.8260  140.7642  163.5110 C.ar    1  UNL1        0.0568
     15 N         137.3047  142.0611  162.9663 N.pl3   1  UNL1       -0.3307
     16 C         138.1294  143.3086  163.0817 C.3     1  UNL1        0.1085
     17 H         136.4212  142.0934  162.5332 H       1  UNL1        0.1469
     18 C         137.8502  140.0056  159.6156 C.1     1  UNL1       -0.0091
     19 C         138.0159  139.8262  161.0956 C.1     1  UNL1       -0.0484
     20 C         142.2831  142.7839  170.0981 C.1     1  UNL1        0.1246
     21 N         143.1842  143.7027  170.8687 N.1     1  UNL1       -0.1891
     22 O         142.8817  142.1569  167.2260 O.3     1  UNL1       -0.4610
     23 C         143.0011  142.1351  165.7309 C.3     1  UNL1        0.1836
     24 C         142.3225  143.1905  164.9089 C.3     1  UNL1        0.0488
     25 C         143.7991  141.0580  165.0578 C.3     1  UNL1        0.1163
     26 N         143.2382  139.6719  164.9397 N.3     1  UNL1       -0.2673
     27 C         142.2944  139.3374  163.8227 C.3     1  UNL1        0.0898
     28 C         143.6209  138.6203  165.9384 C.3     1  UNL1        0.0898
@<TRIPOS>BOND
     1    18    19    3
     2    19     9    1
     3     9    10   ar
     4    10    11   ar
     5    11    12   ar
     6    12     7    1
     7     7     1    1
     8     1     2   ar
     9     2     3   ar
    10     3     4   ar
    11     4    20    1
    12    20    21    3
    13     4     5   ar
    14     5    22    1
    15    22    23    1
    16    23    24    1
    17    23    25    1
    18    25    26    1
    19    26    27    1
    20    26    28    1
    21     5     6   ar
    22    12    13   ar
    23    13    14   ar
    24    14    15    1
    25    15    16    1
    26    14     9   ar
    27     6     1   ar
    28     7     8    1
    29    15    17    1
@<TRIPOS>MOLECULE
*****
 28 29 0 0 0
SMALL
GASTEIGER

@<TRIPOS>ATOM
      1 C         143.2759  138.6504  165.1397 C.ar    1  UNL1        0.1558
      2 C         144.4040  139.2999  164.3942 C.ar    1  UNL1        0.1342
      3 N         144.4277  139.2697  162.8947 N.ar    1  UNL1       -0.2263
      4 C         143.3234  138.5900  162.1407 C.ar    1  UNL1        0.2025
      5 C         142.1954  137.9406  162.8861 C.ar    1  UNL1        0.2543
      6 N         142.1716  137.9708  164.3857 N.ar    1  UNL1       -0.1931
      7 N         143.2521  138.6807  166.6392 N.pl3   1  UNL1       -0.2820
      8 H         143.6305  137.9308  167.1527 H       1  UNL1        0.1551
      9 C         141.4515  142.1991  168.7905 C.ar    1  UNL1        0.0749
     10 C         142.2759  141.1997  169.5463 C.ar    1  UNL1        0.1097
     11 N         142.8761  140.0269  168.8292 N.ar    1  UNL1       -0.2283
     12 C         142.6519  139.8535  167.3563 C.ar    1  UNL1        0.1345
     13 C         141.8275  140.8530  166.6005 C.ar    1  UNL1        0.0494
     14 C         141.2272  142.0258  167.3176 C.ar    1  UNL1        0.0568
     15 N         140.4028  143.0253  166.5616 N.pl3   1  UNL1       -0.3307
     16 C         140.4432  143.0503  165.0624 C.3     1  UNL1        0.1085
     17 H         139.8351  143.6648  167.0495 H       1  UNL1        0.1469
     18 C         140.2510  144.5448  170.2247 C.1     1  UNL1       -0.0091
     19 C         140.8513  143.3720  169.5076 C.1     1  UNL1       -0.0484
     20 C         143.3472  138.5598  160.6411 C.1     1  UNL1        0.1246
     21 N         143.3710  138.5295  159.1417 N.1     1  UNL1       -0.1891
     22 O         141.0911  137.2609  162.1321 O.3     1  UNL1       -0.4610
     23 C         139.7776  137.9581  161.9353 C.3     1  UNL1        0.1836
     24 C         138.6501  137.7183  162.8952 C.3     1  UNL1        0.0488
     25 C         139.5916  138.8949  160.7788 C.3     1  UNL1        0.1163
     26 N         139.4865  140.3718  161.0193 N.3     1  UNL1       -0.2673
     27 C         138.1444  141.0414  160.9991 C.3     1  UNL1        0.0898
     28 C         140.7236  141.1790  161.2802 C.3     1  UNL1        0.0898
@<TRIPOS>BOND
     1    18    19    3
     2    19     9    1
     3     9    10   ar
     4    10    11   ar
     5    11    12   ar
     6    12     7    1
     7     7     1    1
     8     1     2   ar
     9     2     3   ar
    10     3     4   ar
    11     4    20    1
    12    20    21    3
    13     4     5   ar
    14     5    22    1
    15    22    23    1
    16    23    24    1
    17    23    25    1
    18    25    26    1
    19    26    27    1
    20    26    28    1
    21     5     6   ar
    22    12    13   ar
    23    13    14   ar
    24    14    15    1
    25    15    16    1
    26    14     9   ar
    27     6     1   ar
    28     7     8    1
    29    15    17    1
@<TRIPOS>MOLECULE
*****
 28 29 0 0 0
SMALL
GASTEIGER

@<TRIPOS>ATOM
      1 C         139.6688  140.1193  168.1168 C.ar    1  UNL1        0.1558
      2 C         139.3765  140.5120  169.5347 C.ar    1  UNL1        0.1342
      3 N         140.2947  141.4530  170.2568 N.ar    1  UNL1       -0.2263
      4 C         141.5050  142.0015  169.5609 C.ar    1  UNL1        0.2025
      5 C         141.7973  141.6088  168.1431 C.ar    1  UNL1        0.2543
      6 N         140.8792  140.6677  167.4210 N.ar    1  UNL1       -0.1931
      7 N         138.7506  139.1782  167.3948 N.pl3   1  UNL1       -0.2820
      8 H         138.0968  138.6434  167.9005 H       1  UNL1        0.1551
      9 C         138.9846  138.7992  162.9169 C.ar    1  UNL1        0.0749
     10 C         139.7606  137.8589  163.7907 C.ar    1  UNL1        0.1097
     11 N         139.6826  137.9852  165.2833 N.ar    1  UNL1       -0.2283
     12 C         138.8286  139.0519  165.9021 C.ar    1  UNL1        0.1345
     13 C         138.0527  139.9922  165.0283 C.ar    1  UNL1        0.0494
     14 C         138.1306  139.8659  163.5357 C.ar    1  UNL1        0.0568
     15 N         137.3546  140.8063  162.6618 N.pl3   1  UNL1       -0.3307
     16 C         137.9199  142.1535  162.3222 C.3     1  UNL1        0.1085
     17 H         136.4743  140.5393  162.3113 H       1  UNL1        0.1469
     18 C         139.1406  138.5466  159.9316 C.1     1  UNL1       -0.0091
     19 C         139.0626  138.6729  161.4242 C.1     1  UNL1       -0.0484
     20 C         142.4232  142.9426  170.2830 C.1     1  UNL1        0.1246
     21 N         143.3413  143.8836  171.0051 N.1     1  UNL1       -0.1891
     22 O         143.0077  142.1573  167.4472 O.3     1  UNL1       -0.4610
     23 C         143.1710  141.9711  165.9678 C.3     1  UNL1        0.1836
     24 C         143.3306  140.5926  165.3984 C.3     1  UNL1        0.0488
     25 C         143.1746  143.1635  165.0577 C.3     1  UNL1        0.1163
     26 N         141.8774  143.7600  164.5980 N.3     1  UNL1       -0.2673
     27 C         141.8773  145.0281  163.7966 C.3     1  UNL1        0.0898
     28 C         140.5803  143.0885  164.9395 C.3     1  UNL1        0.0898
@<TRIPOS>BOND
     1    18    19    3
     2    19     9    1
     3     9    10   ar
     4    10    11   ar
     5    11    12   ar
     6    12     7    1
     7     7     1    1
     8     1     2   ar
     9     2     3   ar
    10     3     4   ar
    11     4    20    1
    12    20    21    3
    13     4     5   ar
    14     5    22    1
    15    22    23    1
    16    23    24    1
    17    23    25    1
    18    25    26    1
    19    26    27    1
    20    26    28    1
    21     5     6   ar
    22    12    13   ar
    23    13    14   ar
    24    14    15    1
    25    15    16    1
    26    14     9   ar
    27     6     1   ar
    28     7     8    1
    29    15    17    1
@<TRIPOS>MOLECULE
*****
 28 29 0 0 0
SMALL
GASTEIGER

@<TRIPOS>ATOM
      1 C         138.1292  140.0526  163.9323 C.ar    1  UNL1        0.1558
      2 C         137.4002  140.9717  162.9975 C.ar    1  UNL1        0.1342
      3 N         137.5720  140.8239  161.5147 N.ar    1  UNL1       -0.2263
      4 C         138.4726  139.7569  160.9667 C.ar    1  UNL1        0.2025
      5 C         139.2016  138.8378  161.9014 C.ar    1  UNL1        0.2543
      6 N         139.0299  138.9856  163.3843 N.ar    1  UNL1       -0.1931
      7 N         137.9575  140.2004  165.4151 N.pl3   1  UNL1       -0.2820
      8 H         137.0834  140.0185  165.8299 H       1  UNL1        0.1551
      9 C         141.4376  141.4752  167.9672 C.ar    1  UNL1        0.0749
     10 C         141.1525  142.1870  166.6780 C.ar    1  UNL1        0.1097
     11 N         139.9924  141.7621  165.8273 N.ar    1  UNL1       -0.2283
     12 C         139.1175  140.6253  166.2658 C.ar    1  UNL1        0.1345
     13 C         139.4027  139.9135  167.5549 C.ar    1  UNL1        0.0494
     14 C         140.5627  140.3385  168.4056 C.ar    1  UNL1        0.0568
     15 N         140.8478  139.6266  169.6949 N.pl3   1  UNL1       -0.3307
     16 C         140.1683  140.0631  170.9588 C.3     1  UNL1        0.1085
     17 H         141.4810  138.8729  169.7114 H       1  UNL1        0.1469
     18 C         143.7577  142.3251  169.6686 C.1     1  UNL1       -0.0091
     19 C         142.5977  141.9001  168.8179 C.1     1  UNL1       -0.0484
     20 C         138.6444  139.6091  159.4839 C.1     1  UNL1        0.1246
     21 N         138.8161  139.4613  158.0011 N.1     1  UNL1       -0.1891
     22 O         140.1023  137.7708  161.3534 O.3     1  UNL1       -0.4610
     23 C         141.5827  138.0022  161.2832 C.3     1  UNL1        0.1836
     24 C         142.2471  138.2103  159.9546 C.3     1  UNL1        0.0488
     25 C         142.3987  138.0253  162.5416 C.3     1  UNL1        0.1163
     26 N         143.0230  139.3073  163.0071 N.3     1  UNL1       -0.2673
     27 C         142.2625  140.5955  162.8960 C.3     1  UNL1        0.0898
     28 C         144.4077  139.3012  163.5836 C.3     1  UNL1        0.0898
@<TRIPOS>BOND
     1    18    19    3
     2    19     9    1
     3     9    10   ar
     4    10    11   ar
     5    11    12   ar
     6    12     7    1
     7     7     1    1
     8     1     2   ar
     9     2     3   ar
    10     3     4   ar
    11     4    20    1
    12    20    21    3
    13     4     5   ar
    14     5    22    1
    15    22    23    1
    16    23    24    1
    17    23    25    1
    18    25    26    1
    19    26    27    1
    20    26    28    1
    21     5     6   ar
    22    12    13   ar
    23    13    14   ar
    24    14    15    1
    25    15    16    1
    26    14     9   ar
    27     6     1   ar
    28     7     8    1
    29    15    17    1
