@<TRIPOS>MOLECULE
*****
 34 37 0 0 0
SMALL
GASTEIGER

@<TRIPOS>ATOM
      1 N         139.6013  139.3611  162.3293 N.3     1  UNL1       -0.2698
      2 N         139.9543  139.8006  166.7938 N.pl3   1  UNL1       -0.2769
      3 C         140.9697  140.4410  165.8946 C.3     1  UNL1        0.0950
      4 C         140.8520  140.2945  164.4064 C.3     1  UNL1        0.0375
      5 C         139.7190  139.5076  163.8175 C.3     1  UNL1        0.0612
      6 C         138.7035  138.8671  164.7168 C.3     1  UNL1        0.0375
      7 C         138.8212  139.0136  166.2049 C.3     1  UNL1        0.0950
      8 N         141.9428  140.5997  171.6196 N.pl3   1  UNL1       -0.3278
      9 C         140.9860  140.3144  170.5002 C.ar    1  UNL1        0.2099
     10 N         141.3271  140.2627  169.0404 N.ar    1  UNL1       -0.1804
     11 C         140.0720  139.9470  168.2820 C.ar    1  UNL1        0.2395
     12 N         138.9552  139.8035  169.2731 N.ar    1  UNL1       -0.1349
     13 N         139.5201  140.0305  170.6440 N.ar    1  UNL1       -0.2453
     14 H         142.8916  140.7749  171.4236 H       1  UNL1        0.1451
     15 H         141.6221  140.6117  172.5503 H       1  UNL1        0.1451
     16 H         139.0171  139.9988  171.4897 H       1  UNL1        0.1919
     17 C         140.2150  138.1779  161.6413 C.3     1  UNL1        0.0770
     18 C         141.5585  138.3049  160.9861 C.3     1  UNL1        0.0437
     19 C         142.6352  139.1228  161.6353 C.ar    1  UNL1       -0.0207
     20 C         143.4500  138.5397  162.7516 C.ar    1  UNL1       -0.0034
     21 C         144.5267  139.3576  163.4008 C.ar    1  UNL1        0.0111
     22 C         144.7888  140.7588  162.9338 C.ar    1  UNL1        0.0577
     23 CL        145.8655  141.5767  163.5830 Cl      1  UNL1       -0.0822
     24 C         143.9740  141.3420  161.8175 C.ar    1  UNL1        0.0111
     25 C         142.8972  140.5240  161.1682 C.ar    1  UNL1       -0.0034
     26 C         138.8699  140.3978  161.5291 C.3     1  UNL1        0.1021
     27 C         138.8434  141.8235  161.9946 C.ar    1  UNL1        0.0276
     28 C         139.9663  142.7509  161.6350 C.ar    1  UNL1        0.0001
     29 C         139.9398  144.1766  162.1004 C.ar    1  UNL1       -0.0001
     30 C         138.7905  144.6749  162.9255 C.ar    1  UNL1        0.0031
     31 C         137.6676  143.7477  163.2851 C.ar    1  UNL1        0.0363
     32 C         137.6941  142.3219  162.8196 C.ar    1  UNL1        0.1309
     33 O         136.5713  141.3946  163.1792 O.3     1  UNL1       -0.5058
     34 H         135.8533  141.7059  163.6946 H       1  UNL1        0.2922
@<TRIPOS>BOND
     1     8     9    1
     2     9    10   ar
     3    10    11   ar
     4    11     2    1
     5     2     3    1
     6     3     4    1
     7     4     5    1
     8     5     1    1
     9     1    17    1
    10    17    18    1
    11    18    19    1
    12    19    20   ar
    13    20    21   ar
    14    21    22   ar
    15    22    23    1
    16    22    24   ar
    17    24    25   ar
    18     1    26    1
    19    26    27    1
    20    27    28   ar
    21    28    29   ar
    22    29    30   ar
    23    30    31   ar
    24    31    32   ar
    25    32    33    1
    26     5     6    1
    27     6     7    1
    28    11    12   ar
    29    12    13   ar
    30    13     9   ar
    31     7     2    1
    32    25    19   ar
    33    32    27   ar
    34     8    14    1
    35     8    15    1
    36    33    34    1
    37    13    16    1
@<TRIPOS>MOLECULE
*****
 34 37 0 0 0
SMALL
GASTEIGER

@<TRIPOS>ATOM
      1 N         139.2128  142.8403  164.6549 N.3     1  UNL1       -0.2698
      2 N         140.5993  144.4881  160.7036 N.pl3   1  UNL1       -0.2769
      3 C         140.9691  143.0909  161.1048 C.3     1  UNL1        0.0950
      4 C         140.5069  142.5417  162.4219 C.3     1  UNL1        0.0375
      5 C         139.6750  143.3896  163.3377 C.3     1  UNL1        0.0612
      6 C         139.3052  144.7868  162.9365 C.3     1  UNL1        0.0375
      7 C         139.7673  145.3361  161.6195 C.3     1  UNL1        0.0950
      8 N         140.6454  146.8985  156.0058 N.pl3   1  UNL1       -0.3278
      9 C         141.0826  146.1454  157.2271 C.ar    1  UNL1        0.2099
     10 N         140.2167  145.7853  158.3979 N.ar    1  UNL1       -0.1804
     11 C         141.0614  145.0375  159.3865 C.ar    1  UNL1        0.2395
     12 N         142.4493  144.9354  158.8267 N.ar    1  UNL1       -0.1349
     13 N         142.4624  145.6201  157.4922 N.ar    1  UNL1       -0.2453
     14 H         139.7130  147.2037  155.9232 H       1  UNL1        0.1451
     15 H         141.2908  147.0877  155.2869 H       1  UNL1        0.1451
     16 H         143.2401  145.7092  156.8951 H       1  UNL1        0.1919
     17 C         139.8425  143.3187  165.9295 C.3     1  UNL1        0.0770
     18 C         140.9552  142.5327  166.5574 C.3     1  UNL1        0.0437
     19 C         142.2178  142.2753  165.7895 C.ar    1  UNL1       -0.0207
     20 C         142.9765  143.4210  165.1879 C.ar    1  UNL1       -0.0034
     21 C         144.2390  143.1636  164.4200 C.ar    1  UNL1        0.0111
     22 C         144.7430  141.7605  164.2538 C.ar    1  UNL1        0.0577
     23 CL        146.0055  141.5031  163.4860 Cl      1  UNL1       -0.0822
     24 C         143.9843  140.6149  164.8555 C.ar    1  UNL1        0.0111
     25 C         142.7217  140.8724  165.6234 C.ar    1  UNL1       -0.0034
     26 C         138.1210  141.8126  164.6973 C.3     1  UNL1        0.1021
     27 C         138.3885  140.4143  164.2252 C.ar    1  UNL1        0.0276
     28 C         139.1668  139.4669  165.0893 C.ar    1  UNL1        0.0001
     29 C         139.4343  138.0685  164.6172 C.ar    1  UNL1       -0.0001
     30 C         138.9235  137.6174  163.2809 C.ar    1  UNL1        0.0031
     31 C         138.1452  138.5647  162.4168 C.ar    1  UNL1        0.0363
     32 C         137.8777  139.9632  162.8889 C.ar    1  UNL1        0.1309
     33 O         137.0994  140.9105  162.0247 O.3     1  UNL1       -0.5058
     34 H         136.7804  140.6288  161.1900 H       1  UNL1        0.2922
@<TRIPOS>BOND
     1     8     9    1
     2     9    10   ar
     3    10    11   ar
     4    11     2    1
     5     2     3    1
     6     3     4    1
     7     4     5    1
     8     5     1    1
     9     1    17    1
    10    17    18    1
    11    18    19    1
    12    19    20   ar
    13    20    21   ar
    14    21    22   ar
    15    22    23    1
    16    22    24   ar
    17    24    25   ar
    18     1    26    1
    19    26    27    1
    20    27    28   ar
    21    28    29   ar
    22    29    30   ar
    23    30    31   ar
    24    31    32   ar
    25    32    33    1
    26     5     6    1
    27     6     7    1
    28    11    12   ar
    29    12    13   ar
    30    13     9   ar
    31     7     2    1
    32    25    19   ar
    33    32    27   ar
    34     8    14    1
    35     8    15    1
    36    33    34    1
    37    13    16    1
@<TRIPOS>MOLECULE
*****
 34 37 0 0 0
SMALL
GASTEIGER

@<TRIPOS>ATOM
      1 N         137.9413  140.4470  163.3062 N.3     1  UNL1       -0.2698
      2 N         139.8911  140.0982  167.3468 N.pl3   1  UNL1       -0.2769
      3 C         138.7135  139.2342  167.0052 C.3     1  UNL1        0.0950
      4 C         138.0636  139.3504  165.6584 C.3     1  UNL1        0.0375
      5 C         138.5913  140.3307  164.6531 C.3     1  UNL1        0.0612
      6 C         139.7689  141.1947  164.9946 C.3     1  UNL1        0.0375
      7 C         140.4188  141.0785  166.3415 C.3     1  UNL1        0.0950
      8 N         143.5370  139.7188  171.1474 N.pl3   1  UNL1       -0.3278
      9 C         142.2170  139.8075  170.4406 C.ar    1  UNL1        0.2099
     10 N         142.0163  139.9209  168.9584 N.ar    1  UNL1       -0.1804
     11 C         140.5411  139.9819  168.6937 C.ar    1  UNL1        0.2395
     12 N         139.8300  139.9063  170.0122 N.ar    1  UNL1       -0.1349
     13 N         140.8657  139.7985  171.0919 N.ar    1  UNL1       -0.2453
     14 H         144.3744  139.7327  170.6298 H       1  UNL1        0.1451
     15 H         143.5661  139.6467  172.1288 H       1  UNL1        0.1451
     16 H         140.6896  139.7333  172.0583 H       1  UNL1        0.1919
     17 C         137.9025  139.2620  162.3873 C.3     1  UNL1        0.0770
     18 C         139.0955  138.9299  161.5408 C.3     1  UNL1        0.0437
     19 C         140.4766  139.0357  162.1166 C.ar    1  UNL1       -0.0207
     20 C         141.3606  140.1870  161.7385 C.ar    1  UNL1       -0.0034
     21 C         142.7416  140.2928  162.3143 C.ar    1  UNL1        0.0111
     22 C         143.2386  139.2472  163.2682 C.ar    1  UNL1        0.0577
     23 CL        144.6196  139.3530  163.8440 Cl      1  UNL1       -0.0822
     24 C         142.3546  138.0959  163.6463 C.ar    1  UNL1        0.0111
     25 C         140.9735  137.9902  163.0705 C.ar    1  UNL1       -0.0034
     26 C         137.3301  141.7482  162.8782 C.3     1  UNL1        0.1021
     27 C         138.1969  142.8339  162.3125 C.ar    1  UNL1        0.0276
     28 C         138.8617  142.6456  160.9810 C.ar    1  UNL1        0.0001
     29 C         139.7285  143.7313  160.4154 C.ar    1  UNL1       -0.0001
     30 C         139.9306  145.0051  161.1811 C.ar    1  UNL1        0.0031
     31 C         139.2658  145.1934  162.5125 C.ar    1  UNL1        0.0363
     32 C         138.3990  144.1078  163.0782 C.ar    1  UNL1        0.1309
     33 O         137.7343  144.2960  164.4096 O.3     1  UNL1       -0.5058
     34 H         137.8605  145.0918  164.8880 H       1  UNL1        0.2922
@<TRIPOS>BOND
     1     8     9    1
     2     9    10   ar
     3    10    11   ar
     4    11     2    1
     5     2     3    1
     6     3     4    1
     7     4     5    1
     8     5     1    1
     9     1    17    1
    10    17    18    1
    11    18    19    1
    12    19    20   ar
    13    20    21   ar
    14    21    22   ar
    15    22    23    1
    16    22    24   ar
    17    24    25   ar
    18     1    26    1
    19    26    27    1
    20    27    28   ar
    21    28    29   ar
    22    29    30   ar
    23    30    31   ar
    24    31    32   ar
    25    32    33    1
    26     5     6    1
    27     6     7    1
    28    11    12   ar
    29    12    13   ar
    30    13     9   ar
    31     7     2    1
    32    25    19   ar
    33    32    27   ar
    34     8    14    1
    35     8    15    1
    36    33    34    1
    37    13    16    1
@<TRIPOS>MOLECULE
*****
 34 37 0 0 0
SMALL
GASTEIGER

@<TRIPOS>ATOM
      1 N         140.8128  144.2633  163.8732 N.3     1  UNL1       -0.2698
      2 N         141.6302  141.6850  167.4695 N.pl3   1  UNL1       -0.2769
      3 C         140.3319  142.4280  167.3589 C.3     1  UNL1        0.0950
      4 C         140.0594  143.2874  166.1601 C.3     1  UNL1        0.0375
      5 C         141.0853  143.4038  165.0720 C.3     1  UNL1        0.0612
      6 C         142.3836  142.6608  165.1826 C.3     1  UNL1        0.0375
      7 C         142.6561  141.8014  166.3814 C.3     1  UNL1        0.0950
      8 N         144.0597  139.4028  171.5647 N.pl3   1  UNL1       -0.3278
      9 C         143.0195  139.7765  170.5507 C.ar    1  UNL1        0.2099
     10 N         143.1912  140.7630  169.4338 N.ar    1  UNL1       -0.1804
     11 C         141.9027  140.8255  168.6683 C.ar    1  UNL1        0.2395
     12 N         140.9347  139.8777  169.3121 N.ar    1  UNL1       -0.1349
     13 N         141.6248  139.2294  170.4754 N.ar    1  UNL1       -0.2453
     14 H         144.9514  139.8189  171.5315 H       1  UNL1        0.1451
     15 H         143.8508  138.7414  172.2634 H       1  UNL1        0.1451
     16 H         141.2315  138.5620  171.0830 H       1  UNL1        0.1919
     17 C         139.4966  144.9705  163.7409 C.3     1  UNL1        0.0770
     18 C         138.5226  144.5502  162.6802 C.3     1  UNL1        0.0437
     19 C         138.2847  143.0932  162.4153 C.ar    1  UNL1       -0.0207
     20 C         138.3792  142.5600  161.0165 C.ar    1  UNL1       -0.0034
     21 C         138.1413  141.1029  160.7516 C.ar    1  UNL1        0.0111
     22 C         137.8088  140.1789  161.8855 C.ar    1  UNL1        0.0577
     23 CL        137.5708  138.7218  161.6206 Cl      1  UNL1       -0.0822
     24 C         137.7143  140.7121  163.2844 C.ar    1  UNL1        0.0111
     25 C         137.9522  142.1693  163.5493 C.ar    1  UNL1       -0.0034
     26 C         141.8565  144.4156  162.8066 C.3     1  UNL1        0.1021
     27 C         141.8226  143.5351  161.5928 C.ar    1  UNL1        0.0276
     28 C         141.9006  142.0448  161.7449 C.ar    1  UNL1        0.0001
     29 C         141.8667  141.1642  160.5311 C.ar    1  UNL1       -0.0001
     30 C         141.7547  141.7738  159.1652 C.ar    1  UNL1        0.0031
     31 C         141.6766  143.2640  159.0130 C.ar    1  UNL1        0.0363
     32 C         141.7106  144.1447  160.2269 C.ar    1  UNL1        0.1309
     33 O         141.6325  145.6349  160.0747 O.3     1  UNL1       -0.5058
     34 H         141.5626  146.0157  159.2215 H       1  UNL1        0.2922
@<TRIPOS>BOND
     1     8     9    1
     2     9    10   ar
     3    10    11   ar
     4    11     2    1
     5     2     3    1
     6     3     4    1
     7     4     5    1
     8     5     1    1
     9     1    17    1
    10    17    18    1
    11    18    19    1
    12    19    20   ar
    13    20    21   ar
    14    21    22   ar
    15    22    23    1
    16    22    24   ar
    17    24    25   ar
    18     1    26    1
    19    26    27    1
    20    27    28   ar
    21    28    29   ar
    22    29    30   ar
    23    30    31   ar
    24    31    32   ar
    25    32    33    1
    26     5     6    1
    27     6     7    1
    28    11    12   ar
    29    12    13   ar
    30    13     9   ar
    31     7     2    1
    32    25    19   ar
    33    32    27   ar
    34     8    14    1
    35     8    15    1
    36    33    34    1
    37    13    16    1
@<TRIPOS>MOLECULE
*****
 34 37 0 0 0
SMALL
GASTEIGER

@<TRIPOS>ATOM
      1 N         138.7242  139.9597  162.7863 N.3     1  UNL1       -0.2698
      2 N         140.3010  139.8602  166.9998 N.pl3   1  UNL1       -0.2769
      3 C         141.1717  140.3586  165.8848 C.3     1  UNL1        0.0950
      4 C         140.6461  140.3918  164.4803 C.3     1  UNL1        0.0375
      5 C         139.2498  139.9265  164.1909 C.3     1  UNL1        0.0612
      6 C         138.3791  139.4281  165.3059 C.3     1  UNL1        0.0375
      7 C         138.9047  139.3949  166.7104 C.3     1  UNL1        0.0950
      8 N         143.5882  139.7114  171.1294 N.pl3   1  UNL1       -0.3278
      9 C         142.3376  139.7586  170.3025 C.ar    1  UNL1        0.2099
     10 N         142.2716  139.7795  168.8042 N.ar    1  UNL1       -0.1804
     11 C         140.8266  139.8270  168.4044 C.ar    1  UNL1        0.2395
     12 N         139.9996  139.8355  169.6557 N.ar    1  UNL1       -0.1349
     13 N         140.9334  139.7933  170.8289 N.ar    1  UNL1       -0.2453
     14 H         144.4687  139.6910  170.6895 H       1  UNL1        0.1451
     15 H         143.5285  139.7007  172.1121 H       1  UNL1        0.1451
     16 H         140.6707  139.7890  171.7777 H       1  UNL1        0.1919
     17 C         137.6871  140.9712  162.3974 C.3     1  UNL1        0.0770
     18 C         138.0980  142.2424  161.7151 C.3     1  UNL1        0.0437
     19 C         139.2234  143.0626  162.2722 C.ar    1  UNL1       -0.0207
     20 C         139.1028  143.6725  163.6373 C.ar    1  UNL1       -0.0034
     21 C         140.2282  144.4928  164.1944 C.ar    1  UNL1        0.0111
     22 C         141.4744  144.7032  163.3864 C.ar    1  UNL1        0.0577
     23 CL        142.5999  145.5235  163.9436 Cl      1  UNL1       -0.0822
     24 C         141.5951  144.0933  162.0213 C.ar    1  UNL1        0.0111
     25 C         140.4695  143.2730  161.4642 C.ar    1  UNL1       -0.0034
     26 C         139.2357  138.9814  161.7708 C.3     1  UNL1        0.1021
     27 C         140.6859  138.9876  161.3876 C.ar    1  UNL1        0.0276
     28 C         141.2152  140.0512  160.4718 C.ar    1  UNL1        0.0001
     29 C         142.6654  140.0573  160.0886 C.ar    1  UNL1       -0.0001
     30 C         143.5863  138.9999  160.6211 C.ar    1  UNL1        0.0031
     31 C         143.0571  137.9362  161.5368 C.ar    1  UNL1        0.0363
     32 C         141.6069  137.9301  161.9201 C.ar    1  UNL1        0.1309
     33 O         141.0777  136.8665  162.8358 O.3     1  UNL1       -0.5058
     34 H         141.6530  136.2059  163.1685 H       1  UNL1        0.2922
@<TRIPOS>BOND
     1     8     9    1
     2     9    10   ar
     3    10    11   ar
     4    11     2    1
     5     2     3    1
     6     3     4    1
     7     4     5    1
     8     5     1    1
     9     1    17    1
    10    17    18    1
    11    18    19    1
    12    19    20   ar
    13    20    21   ar
    14    21    22   ar
    15    22    23    1
    16    22    24   ar
    17    24    25   ar
    18     1    26    1
    19    26    27    1
    20    27    28   ar
    21    28    29   ar
    22    29    30   ar
    23    30    31   ar
    24    31    32   ar
    25    32    33    1
    26     5     6    1
    27     6     7    1
    28    11    12   ar
    29    12    13   ar
    30    13     9   ar
    31     7     2    1
    32    25    19   ar
    33    32    27   ar
    34     8    14    1
    35     8    15    1
    36    33    34    1
    37    13    16    1
@<TRIPOS>MOLECULE
*****
 34 37 0 0 0
SMALL
GASTEIGER

@<TRIPOS>ATOM
      1 N         139.5402  139.6920  164.9634 N.3     1  UNL1       -0.2698
      2 N         140.2748  138.7854  160.6173 N.pl3   1  UNL1       -0.2769
      3 C         141.1001  139.8246  161.3166 C.3     1  UNL1        0.0950
      4 C         140.8552  140.1267  162.7653 C.3     1  UNL1        0.0375
      5 C         139.7850  139.3898  163.5147 C.3     1  UNL1        0.0612
      6 C         138.9597  138.3507  162.8154 C.3     1  UNL1        0.0375
      7 C         139.2046  138.0485  161.3667 C.3     1  UNL1        0.0950
      8 N         142.7041  137.7937  156.0351 N.pl3   1  UNL1       -0.3278
      9 C         141.6363  138.0274  157.0624 C.ar    1  UNL1        0.2099
     10 N         141.8606  138.3205  158.5163 N.ar    1  UNL1       -0.1804
     11 C         140.5197  138.4832  159.1686 C.ar    1  UNL1        0.2395
     12 N         139.4667  138.2906  158.1179 N.ar    1  UNL1       -0.1349
     13 N         140.1568  138.0089  156.8162 N.ar    1  UNL1       -0.2453
     14 H         143.6530  137.8265  156.2953 H       1  UNL1        0.1451
     15 H         142.4560  137.6076  155.1008 H       1  UNL1        0.1451
     16 H         139.7160  137.8413  155.9520 H       1  UNL1        0.1919
     17 C         140.2999  138.9505  166.0231 C.3     1  UNL1        0.0770
     18 C         141.4669  139.6020  166.7041 C.3     1  UNL1        0.0437
     19 C         142.6121  140.1279  165.8905 C.ar    1  UNL1       -0.0207
     20 C         142.8023  141.6073  165.7317 C.ar    1  UNL1       -0.0034
     21 C         143.9476  142.1331  164.9182 C.ar    1  UNL1        0.0111
     22 C         144.9026  141.1795  164.2633 C.ar    1  UNL1        0.0577
     23 CL        146.0478  141.7054  163.4498 Cl      1  UNL1       -0.0822
     24 C         144.7123  139.7001  164.4221 C.ar    1  UNL1        0.0111
     25 C         143.5670  139.1743  165.2357 C.ar    1  UNL1       -0.0034
     26 C         138.5356  140.7358  165.3524 C.3     1  UNL1        0.1021
     27 C         138.5861  142.0966  164.7234 C.ar    1  UNL1        0.0276
     28 C         139.5602  143.1201  165.2271 C.ar    1  UNL1        0.0001
     29 C         139.6107  144.4809  164.5981 C.ar    1  UNL1       -0.0001
     30 C         138.6871  144.8183  163.4654 C.ar    1  UNL1        0.0031
     31 C         137.7130  143.7949  162.9616 C.ar    1  UNL1        0.0363
     32 C         137.6625  142.4340  163.5906 C.ar    1  UNL1        0.1309
     33 O         136.6884  141.4106  163.0869 O.3     1  UNL1       -0.5058
     34 H         136.1115  141.6214  162.3793 H       1  UNL1        0.2922
@<TRIPOS>BOND
     1     8     9    1
     2     9    10   ar
     3    10    11   ar
     4    11     2    1
     5     2     3    1
     6     3     4    1
     7     4     5    1
     8     5     1    1
     9     1    17    1
    10    17    18    1
    11    18    19    1
    12    19    20   ar
    13    20    21   ar
    14    21    22   ar
    15    22    23    1
    16    22    24   ar
    17    24    25   ar
    18     1    26    1
    19    26    27    1
    20    27    28   ar
    21    28    29   ar
    22    29    30   ar
    23    30    31   ar
    24    31    32   ar
    25    32    33    1
    26     5     6    1
    27     6     7    1
    28    11    12   ar
    29    12    13   ar
    30    13     9   ar
    31     7     2    1
    32    25    19   ar
    33    32    27   ar
    34     8    14    1
    35     8    15    1
    36    33    34    1
    37    13    16    1
@<TRIPOS>MOLECULE
*****
 34 37 0 0 0
SMALL
GASTEIGER

@<TRIPOS>ATOM
      1 N         141.8543  143.4366  164.7879 N.3     1  UNL1       -0.2698
      2 N         141.3109  144.9883  160.5990 N.pl3   1  UNL1       -0.2769
      3 C         142.3394  143.9334  160.8805 C.3     1  UNL1        0.0950
      4 C         142.5205  143.4162  162.2767 C.3     1  UNL1        0.0375
      5 C         141.6731  143.9539  163.3915 C.3     1  UNL1        0.0612
      6 C         140.6446  145.0088  163.1101 C.3     1  UNL1        0.0375
      7 C         140.4635  145.5260  161.7138 C.3     1  UNL1        0.0950
      8 N         139.0849  146.6225  156.0984 N.pl3   1  UNL1       -0.3278
      9 C         140.1066  146.2567  157.1339 C.ar    1  UNL1        0.2099
     10 N         139.8188  145.7371  158.5113 N.ar    1  UNL1       -0.1804
     11 C         141.1298  145.5056  159.2026 C.ar    1  UNL1        0.2395
     12 N         142.2277  145.8821  158.2525 N.ar    1  UNL1       -0.1349
     13 N         141.5954  146.3464  156.9740 N.ar    1  UNL1       -0.2453
     14 H         138.1256  146.5285  156.2986 H       1  UNL1        0.1451
     15 H         139.3737  146.9566  155.2185 H       1  UNL1        0.1451
     16 H         142.0735  146.6556  156.1709 H       1  UNL1        0.1919
     17 C         143.2266  143.0987  165.2904 C.3     1  UNL1        0.0770
     18 C         143.9264  141.8693  164.7914 C.3     1  UNL1        0.0437
     19 C         143.1878  140.5662  164.7114 C.ar    1  UNL1       -0.0207
     20 C         143.1893  139.6301  165.8834 C.ar    1  UNL1       -0.0034
     21 C         142.4508  138.3270  165.8034 C.ar    1  UNL1        0.0111
     22 C         141.7106  137.9600  164.5513 C.ar    1  UNL1        0.0577
     23 CL        140.9720  136.6570  164.4713 Cl      1  UNL1       -0.0822
     24 C         141.7091  138.8962  163.3793 C.ar    1  UNL1        0.0111
     25 C         142.4477  140.1993  163.4594 C.ar    1  UNL1       -0.0034
     26 C         140.6630  143.2572  165.6816 C.3     1  UNL1        0.1021
     27 C         139.9244  141.9518  165.6940 C.ar    1  UNL1        0.0276
     28 C         139.1423  141.5212  164.4886 C.ar    1  UNL1        0.0001
     29 C         138.4036  140.2157  164.5009 C.ar    1  UNL1       -0.0001
     30 C         138.4471  139.3408  165.7185 C.ar    1  UNL1        0.0031
     31 C         139.2293  139.7713  166.9239 C.ar    1  UNL1        0.0363
     32 C         139.9679  141.0769  166.9116 C.ar    1  UNL1        0.1309
     33 O         140.7500  141.5074  168.1169 O.3     1  UNL1       -0.5058
     34 H         140.7772  140.9609  168.8775 H       1  UNL1        0.2922
@<TRIPOS>BOND
     1     8     9    1
     2     9    10   ar
     3    10    11   ar
     4    11     2    1
     5     2     3    1
     6     3     4    1
     7     4     5    1
     8     5     1    1
     9     1    17    1
    10    17    18    1
    11    18    19    1
    12    19    20   ar
    13    20    21   ar
    14    21    22   ar
    15    22    23    1
    16    22    24   ar
    17    24    25   ar
    18     1    26    1
    19    26    27    1
    20    27    28   ar
    21    28    29   ar
    22    29    30   ar
    23    30    31   ar
    24    31    32   ar
    25    32    33    1
    26     5     6    1
    27     6     7    1
    28    11    12   ar
    29    12    13   ar
    30    13     9   ar
    31     7     2    1
    32    25    19   ar
    33    32    27   ar
    34     8    14    1
    35     8    15    1
    36    33    34    1
    37    13    16    1
@<TRIPOS>MOLECULE
*****
 34 37 0 0 0
SMALL
GASTEIGER

@<TRIPOS>ATOM
      1 N         141.1928  143.4748  164.6989 N.3     1  UNL1       -0.2698
      2 N         141.1855  144.9999  160.4652 N.pl3   1  UNL1       -0.2769
      3 C         142.1191  143.8952  160.8628 C.3     1  UNL1        0.0950
      4 C         142.1215  143.3868  162.2740 C.3     1  UNL1        0.0375
      5 C         141.1904  143.9832  163.2876 C.3     1  UNL1        0.0612
      6 C         140.2569  145.0879  162.8900 C.3     1  UNL1        0.0375
      7 C         140.2544  145.5962  161.4788 C.3     1  UNL1        0.0950
      8 N         139.5456  146.7184  155.7494 N.pl3   1  UNL1       -0.3278
      9 C         140.4293  146.2982  156.8864 C.ar    1  UNL1        0.2099
     10 N         139.9682  145.8193  158.2310 N.ar    1  UNL1       -0.1804
     11 C         141.1831  145.5083  159.0540 C.ar    1  UNL1        0.2395
     12 N         142.3951  145.7949  158.2180 N.ar    1  UNL1       -0.1349
     13 N         141.9292  146.2831  156.8783 N.ar    1  UNL1       -0.2453
     14 H         138.5668  146.6933  155.8515 H       1  UNL1        0.1451
     15 H         139.9445  147.0192  154.9011 H       1  UNL1        0.1451
     16 H         142.5065  146.5472  156.1259 H       1  UNL1        0.1919
     17 C         139.9011  143.3375  165.4489 C.3     1  UNL1        0.0770
     18 C         138.9202  142.2699  165.0639 C.3     1  UNL1        0.0437
     19 C         139.4077  140.8973  164.7058 C.ar    1  UNL1       -0.0207
     20 C         139.9214  140.6207  163.3239 C.ar    1  UNL1       -0.0034
     21 C         140.4089  139.2481  162.9658 C.ar    1  UNL1        0.0111
     22 C         140.3827  138.1520  163.9895 C.ar    1  UNL1        0.0577
     23 CL        140.8701  136.7794  163.6314 Cl      1  UNL1       -0.0822
     24 C         139.8689  138.4286  165.3714 C.ar    1  UNL1        0.0111
     25 C         139.3814  139.8013  165.7295 C.ar    1  UNL1       -0.0034
     26 C         142.4871  143.1037  165.3601 C.3     1  UNL1        0.1021
     27 C         142.7724  141.6706  165.6987 C.ar    1  UNL1        0.0276
     28 C         143.3762  140.7624  164.6687 C.ar    1  UNL1        0.0001
     29 C         143.6615  139.3293  165.0073 C.ar    1  UNL1       -0.0001
     30 C         143.3431  138.8043  166.3759 C.ar    1  UNL1        0.0031
     31 C         142.7394  139.7123  167.4059 C.ar    1  UNL1        0.0363
     32 C         142.4541  141.1455  167.0673 C.ar    1  UNL1        0.1309
     33 O         141.8504  142.0536  168.0973 O.3     1  UNL1       -0.5058
     34 H         141.6515  141.7257  168.9522 H       1  UNL1        0.2922
@<TRIPOS>BOND
     1     8     9    1
     2     9    10   ar
     3    10    11   ar
     4    11     2    1
     5     2     3    1
     6     3     4    1
     7     4     5    1
     8     5     1    1
     9     1    17    1
    10    17    18    1
    11    18    19    1
    12    19    20   ar
    13    20    21   ar
    14    21    22   ar
    15    22    23    1
    16    22    24   ar
    17    24    25   ar
    18     1    26    1
    19    26    27    1
    20    27    28   ar
    21    28    29   ar
    22    29    30   ar
    23    30    31   ar
    24    31    32   ar
    25    32    33    1
    26     5     6    1
    27     6     7    1
    28    11    12   ar
    29    12    13   ar
    30    13     9   ar
    31     7     2    1
    32    25    19   ar
    33    32    27   ar
    34     8    14    1
    35     8    15    1
    36    33    34    1
    37    13    16    1
@<TRIPOS>MOLECULE
*****
 34 37 0 0 0
SMALL
GASTEIGER

@<TRIPOS>ATOM
      1 N         141.6664  138.7093  163.4079 N.3     1  UNL1       -0.2698
      2 N         142.2854  140.6136  167.4378 N.pl3   1  UNL1       -0.2769
      3 C         141.5997  141.3780  166.3445 C.3     1  UNL1        0.0950
      4 C         141.3934  140.7433  165.0012 C.3     1  UNL1        0.0375
      5 C         141.8727  139.3440  164.7513 C.3     1  UNL1        0.0612
      6 C         142.5584  138.5796  165.8446 C.3     1  UNL1        0.0375
      7 C         142.7647  139.2143  167.1879 C.3     1  UNL1        0.0950
      8 N         143.5414  144.0872  171.2111 N.pl3   1  UNL1       -0.3278
      9 C         143.0691  142.8450  170.5156 C.ar    1  UNL1        0.2099
     10 N         143.0334  142.6244  169.0323 N.ar    1  UNL1       -0.1804
     11 C         142.4917  141.2483  168.7812 C.ar    1  UNL1        0.2395
     12 N         142.1926  140.6184  170.1093 N.ar    1  UNL1       -0.1349
     13 N         142.5494  141.6052  171.1812 N.ar    1  UNL1       -0.2453
     14 H         143.8665  144.8529  170.6845 H       1  UNL1        0.1451
     15 H         143.5265  144.1368  172.1942 H       1  UNL1        0.1451
     16 H         142.4586  141.4640  172.1513 H       1  UNL1        0.1919
     17 C         140.3975  137.9640  163.1175 C.3     1  UNL1        0.0770
     18 C         139.3708  138.5597  162.2003 C.3     1  UNL1        0.0437
     19 C         138.9200  139.9765  162.3987 C.ar    1  UNL1       -0.0207
     20 C         139.2801  141.0264  161.3897 C.ar    1  UNL1       -0.0034
     21 C         138.8292  142.4432  161.5881 C.ar    1  UNL1        0.0111
     22 C         138.0182  142.8102  162.7954 C.ar    1  UNL1        0.0577
     23 CL        137.5673  144.2269  162.9938 Cl      1  UNL1       -0.0822
     24 C         137.6580  141.7602  163.8044 C.ar    1  UNL1        0.0111
     25 C         138.1090  140.3434  163.6060 C.ar    1  UNL1       -0.0034
     26 C         142.7290  138.8199  162.3550 C.3     1  UNL1        0.1021
     27 C         143.3869  140.1415  162.0893 C.ar    1  UNL1        0.0276
     28 C         142.7783  141.0985  161.1076 C.ar    1  UNL1        0.0001
     29 C         143.4362  142.4200  160.8420 C.ar    1  UNL1       -0.0001
     30 C         144.7028  142.7846  161.5581 C.ar    1  UNL1        0.0031
     31 C         145.3115  141.8277  162.5397 C.ar    1  UNL1        0.0363
     32 C         144.6536  140.5060  162.8054 C.ar    1  UNL1        0.1309
     33 O         145.2622  139.5491  163.7871 O.3     1  UNL1       -0.5058
     34 H         146.0535  139.7769  164.2343 H       1  UNL1        0.2922
@<TRIPOS>BOND
     1     8     9    1
     2     9    10   ar
     3    10    11   ar
     4    11     2    1
     5     2     3    1
     6     3     4    1
     7     4     5    1
     8     5     1    1
     9     1    17    1
    10    17    18    1
    11    18    19    1
    12    19    20   ar
    13    20    21   ar
    14    21    22   ar
    15    22    23    1
    16    22    24   ar
    17    24    25   ar
    18     1    26    1
    19    26    27    1
    20    27    28   ar
    21    28    29   ar
    22    29    30   ar
    23    30    31   ar
    24    31    32   ar
    25    32    33    1
    26     5     6    1
    27     6     7    1
    28    11    12   ar
    29    12    13   ar
    30    13     9   ar
    31     7     2    1
    32    25    19   ar
    33    32    27   ar
    34     8    14    1
    35     8    15    1
    36    33    34    1
    37    13    16    1
