@<TRIPOS>MOLECULE
*****
 38 40 0 0 0
SMALL
GASTEIGER

@<TRIPOS>ATOM
      1 C         140.4397  139.8617  167.0174 C.ar    1  UNL1        0.0730
      2 C         140.2246  139.1070  165.7389 C.ar    1  UNL1        0.0322
      3 C         138.9557  138.3355  165.5279 C.ar    1  UNL1        0.0653
      4 C         137.9018  138.3187  166.5953 C.ar    1  UNL1        0.1133
      5 N         138.1170  139.0733  167.8736 N.ar    1  UNL1       -0.2367
      6 C         139.3859  139.8448  168.0847 C.ar    1  UNL1        0.1476
      7 C         139.6010  140.5995  169.3631 C.2     1  UNL1        0.2617
      8 N         139.3545  139.9275  170.6812 N.am    1  UNL1       -0.3240
      9 O         140.0625  142.0262  169.3232 O.2     1  UNL1       -0.2687
     10 H         139.0516  138.9911  170.7074 H       1  UNL1        0.1453
     11 H         139.4957  140.4228  171.5203 H       1  UNL1        0.1453
     12 N         141.7087  140.6332  167.2284 N.pl3   1  UNL1       -0.2964
     13 H         142.1905  140.5637  168.0841 H       1  UNL1        0.1537
     14 C         145.4933  141.8545  163.8840 C.3     1  UNL1        0.0738
     15 C         144.1358  142.1214  164.4635 C.ar    1  UNL1        0.1441
     16 N         143.6010  141.2439  165.5562 N.ar    1  UNL1       -0.2157
     17 C         142.2434  141.5108  166.1357 C.ar    1  UNL1        0.1382
     18 C         141.4206  142.6551  165.6225 C.ar    1  UNL1        0.0920
     19 C         141.9554  143.5326  164.5298 C.ar    1  UNL1        0.2289
     20 N         143.3130  143.2657  163.9503 N.ar    1  UNL1       -0.1966
     21 O         141.1326  144.6770  164.0165 O.3     1  UNL1       -0.4576
     22 C         139.7059  144.8302  164.4534 C.3     1  UNL1        0.2335
     23 C         138.5934  144.6202  163.4692 C.3     1  UNL1        0.1286
     24 C         137.8027  143.8955  164.5177 C.3     1  UNL1        0.0332
     25 C         139.3842  145.3450  162.4207 C.3     1  UNL1        0.0332
     26 O         137.4810  144.4102  162.4852 O.3     1  UNL1       -0.3831
     27 H         136.7591  143.9231  162.9123 H       1  UNL1        0.2104
     28 N         138.7406  137.5809  164.2496 N.pl3   1  UNL1       -0.3316
     29 H         138.4055  136.6555  164.2746 H       1  UNL1        0.1468
     30 C         139.0359  138.2362  162.9330 C.3     1  UNL1        0.0833
     31 C         138.0603  139.2125  162.3456 C.3     1  UNL1        0.0208
     32 C         138.3557  139.8678  161.0290 C.3     1  UNL1        0.0018
     33 C         139.6266  139.5468  160.2999 C.3     1  UNL1        0.0015
     34 C         140.6022  138.5705  160.8873 C.3     1  UNL1        0.0172
     35 C         140.3069  137.9152  162.2038 C.3     1  UNL1        0.0689
     36 N         141.2824  136.9388  162.7912 N.3     1  UNL1       -0.3209
     37 H         140.9238  136.5938  163.6816 H       1  UNL1        0.1189
     38 H         142.1783  137.4025  162.9422 H       1  UNL1        0.1189
@<TRIPOS>BOND
     1    14    15    1
     2    15    16   ar
     3    16    17   ar
     4    17    12    1
     5    12     1    1
     6     1     2   ar
     7     2     3   ar
     8     3    28    1
     9    30    28    1
    10    30    31    1
    11    31    32    1
    12    32    33    1
    13    33    34    1
    14    34    35    1
    15    35    36    1
    16     3     4   ar
    17     4     5   ar
    18     5     6   ar
    19     6     7    1
    20     7     8   am
    21     7     9    2
    22    17    18   ar
    23    18    19   ar
    24    19    21    1
    25    21    22    1
    26    22    23    1
    27    23    24    1
    28    23    25    1
    29    23    26    1
    30    19    20   ar
    31    20    15   ar
    32     6     1   ar
    33    35    30    1
    34    12    13    1
    35    28    29    1
    36    36    37    1
    37    36    38    1
    38     8    10    1
    39     8    11    1
    40    26    27    1
@<TRIPOS>MOLECULE
*****
 38 40 0 0 0
SMALL
GASTEIGER

@<TRIPOS>ATOM
      1 C         140.1597  139.9853  166.9270 C.ar    1  UNL1        0.0730
      2 C         139.9543  139.2179  165.6546 C.ar    1  UNL1        0.0322
      3 C         138.7998  138.2684  165.5295 C.ar    1  UNL1        0.0653
      4 C         137.8508  138.0863  166.6768 C.ar    1  UNL1        0.1133
      5 N         138.0562  138.8538  167.9491 N.ar    1  UNL1       -0.2367
      6 C         139.2106  139.8033  168.0742 C.ar    1  UNL1        0.1476
      7 C         139.4160  140.5707  169.3466 C.2     1  UNL1        0.2617
      8 N         139.1157  139.9268  170.6676 N.am    1  UNL1       -0.3240
      9 O         139.9218  141.9820  169.2979 O.2     1  UNL1       -0.2687
     10 H         138.7837  139.0005  170.6996 H       1  UNL1        0.1453
     11 H         139.2505  140.4305  171.5027 H       1  UNL1        0.1453
     12 N         141.3142  140.9348  167.0521 N.pl3   1  UNL1       -0.2964
     13 H         141.9770  140.8120  167.7696 H       1  UNL1        0.1537
     14 C         139.2337  144.9247  164.4534 C.3     1  UNL1        0.0738
     15 C         140.4185  144.0664  164.7846 C.ar    1  UNL1        0.1441
     16 N         140.2740  142.9298  165.7527 N.ar    1  UNL1       -0.2157
     17 C         141.4587  142.0715  166.0840 C.ar    1  UNL1        0.1382
     18 C         142.7880  142.3498  165.4471 C.ar    1  UNL1        0.0920
     19 C         142.9325  143.4864  164.4791 C.ar    1  UNL1        0.2289
     20 N         141.7477  144.3447  164.1478 N.ar    1  UNL1       -0.1966
     21 O         144.2618  143.7647  163.8422 O.3     1  UNL1       -0.4576
     22 C         144.6343  143.0868  162.5570 C.3     1  UNL1        0.2335
     23 C         144.7822  141.5948  162.5116 C.3     1  UNL1        0.1286
     24 C         145.8829  141.6730  163.5276 C.3     1  UNL1        0.0332
     25 C         143.6816  141.5166  161.4955 C.3     1  UNL1        0.0332
     26 O         144.9302  140.1028  162.4661 O.3     1  UNL1       -0.3831
     27 H         145.6331  139.8289  163.0758 H       1  UNL1        0.2104
     28 N         138.5944  137.5010  164.2572 N.pl3   1  UNL1       -0.3316
     29 H         138.2273  136.5879  164.2868 H       1  UNL1        0.1468
     30 C         138.9484  138.1246  162.9397 C.3     1  UNL1        0.0833
     31 C         137.9881  139.0642  162.2726 C.3     1  UNL1        0.0208
     32 C         138.3421  139.6879  160.9551 C.3     1  UNL1        0.0018
     33 C         139.6563  139.3719  160.3047 C.3     1  UNL1        0.0015
     34 C         140.6165  138.4323  160.9718 C.3     1  UNL1        0.0172
     35 C         140.2626  137.8087  162.2893 C.3     1  UNL1        0.0689
     36 N         141.2229  136.8691  162.9564 N.3     1  UNL1       -0.3209
     37 H         140.8231  136.5422  163.8360 H       1  UNL1        0.1189
     38 H         142.1006  137.3547  163.1415 H       1  UNL1        0.1189
@<TRIPOS>BOND
     1    14    15    1
     2    15    16   ar
     3    16    17   ar
     4    17    12    1
     5    12     1    1
     6     1     2   ar
     7     2     3   ar
     8     3    28    1
     9    30    28    1
    10    30    31    1
    11    31    32    1
    12    32    33    1
    13    33    34    1
    14    34    35    1
    15    35    36    1
    16     3     4   ar
    17     4     5   ar
    18     5     6   ar
    19     6     7    1
    20     7     8   am
    21     7     9    2
    22    17    18   ar
    23    18    19   ar
    24    19    21    1
    25    21    22    1
    26    22    23    1
    27    23    24    1
    28    23    25    1
    29    23    26    1
    30    19    20   ar
    31    20    15   ar
    32     6     1   ar
    33    35    30    1
    34    12    13    1
    35    28    29    1
    36    36    37    1
    37    36    38    1
    38     8    10    1
    39     8    11    1
    40    26    27    1
@<TRIPOS>MOLECULE
*****
 38 40 0 0 0
SMALL
GASTEIGER

@<TRIPOS>ATOM
      1 C         140.0267  139.9595  166.8493 C.ar    1  UNL1        0.0730
      2 C         141.1619  139.7693  165.8874 C.ar    1  UNL1        0.0322
      3 C         142.5677  139.6583  166.3988 C.ar    1  UNL1        0.0653
      4 C         142.8382  139.7376  167.8721 C.ar    1  UNL1        0.1133
      5 N         141.7031  139.9279  168.8339 N.ar    1  UNL1       -0.2367
      6 C         140.2973  140.0388  168.3225 C.ar    1  UNL1        0.1476
      7 C         139.1621  140.2290  169.2844 C.2     1  UNL1        0.2617
      8 N         139.2442  141.2907  170.3409 N.am    1  UNL1       -0.3240
      9 O         137.9449  139.3576  169.1898 O.2     1  UNL1       -0.2687
     10 H         140.0431  141.8626  170.4030 H       1  UNL1        0.1453
     11 H         138.4991  141.4155  170.9722 H       1  UNL1        0.1453
     12 N         138.6210  140.0705  166.3379 N.pl3   1  UNL1       -0.2964
     13 H         137.8660  139.8069  166.9121 H       1  UNL1        0.1537
     14 C         137.6422  139.1666  161.3154 C.3     1  UNL1        0.0738
     15 C         137.8762  140.1310  162.4402 C.ar    1  UNL1        0.1441
     16 N         138.1316  139.6186  163.8266 N.ar    1  UNL1       -0.2157
     17 C         138.3655  140.5830  164.9514 C.ar    1  UNL1        0.1382
     18 C         138.3441  142.0598  164.6898 C.ar    1  UNL1        0.0920
     19 C         138.0887  142.5722  163.3034 C.ar    1  UNL1        0.2289
     20 N         137.8547  141.6078  162.1786 N.ar    1  UNL1       -0.1966
     21 O         138.0672  144.0491  163.0418 O.3     1  UNL1       -0.4576
     22 C         139.0824  144.9410  163.6928 C.3     1  UNL1        0.2335
     23 C         140.3906  145.2114  163.0103 C.3     1  UNL1        0.1286
     24 C         139.6639  145.8858  161.8847 C.3     1  UNL1        0.0332
     25 C         141.1173  144.5369  164.1359 C.3     1  UNL1        0.0332
     26 O         141.6987  145.4818  162.3279 O.3     1  UNL1       -0.3831
     27 H         141.5376  145.9513  161.4945 H       1  UNL1        0.2104
     28 N         143.7029  139.4681  165.4370 N.pl3   1  UNL1       -0.3316
     29 H         144.1966  138.6165  165.4205 H       1  UNL1        0.1468
     30 C         144.0858  140.5753  164.5003 C.3     1  UNL1        0.0833
     31 C         144.0928  141.9960  164.9816 C.3     1  UNL1        0.0208
     32 C         144.4757  143.1033  164.0448 C.3     1  UNL1        0.0018
     33 C         144.8516  142.7899  162.6270 C.3     1  UNL1        0.0015
     34 C         144.8447  141.3692  162.1458 C.3     1  UNL1        0.0172
     35 C         144.4618  140.2619  163.0824 C.3     1  UNL1        0.0689
     36 N         144.4548  138.8412  162.6012 N.3     1  UNL1       -0.3209
     37 H         144.1723  138.2254  163.3636 H       1  UNL1        0.1189
     38 H         145.3901  138.5846  162.2855 H       1  UNL1        0.1189
@<TRIPOS>BOND
     1    14    15    1
     2    15    16   ar
     3    16    17   ar
     4    17    12    1
     5    12     1    1
     6     1     2   ar
     7     2     3   ar
     8     3    28    1
     9    30    28    1
    10    30    31    1
    11    31    32    1
    12    32    33    1
    13    33    34    1
    14    34    35    1
    15    35    36    1
    16     3     4   ar
    17     4     5   ar
    18     5     6   ar
    19     6     7    1
    20     7     8   am
    21     7     9    2
    22    17    18   ar
    23    18    19   ar
    24    19    21    1
    25    21    22    1
    26    22    23    1
    27    23    24    1
    28    23    25    1
    29    23    26    1
    30    19    20   ar
    31    20    15   ar
    32     6     1   ar
    33    35    30    1
    34    12    13    1
    35    28    29    1
    36    36    37    1
    37    36    38    1
    38     8    10    1
    39     8    11    1
    40    26    27    1
@<TRIPOS>MOLECULE
*****
 38 40 0 0 0
SMALL
GASTEIGER

@<TRIPOS>ATOM
      1 C         139.7299  143.6087  162.6991 C.ar    1  UNL1        0.0730
      2 C         139.0290  142.3125  162.9799 C.ar    1  UNL1        0.0322
      3 C         138.2525  141.6291  161.8937 C.ar    1  UNL1        0.0653
      4 C         138.1770  142.2418  160.5265 C.ar    1  UNL1        0.1133
      5 N         138.8779  143.5378  160.2457 N.ar    1  UNL1       -0.2367
      6 C         139.6544  144.2213  161.3320 C.ar    1  UNL1        0.1476
      7 C         140.3554  145.5174  161.0511 C.2     1  UNL1        0.2617
      8 N         141.5452  145.5441  160.1382 N.am    1  UNL1       -0.3240
      9 O         139.8664  146.7868  161.6832 O.2     1  UNL1       -0.2687
     10 H         141.8661  144.7109  159.7233 H       1  UNL1        0.1453
     11 H         142.0053  146.3947  159.9539 H       1  UNL1        0.1453
     12 N         140.5064  144.2921  163.7853 N.pl3   1  UNL1       -0.2964
     13 H         140.3427  145.2423  163.9843 H       1  UNL1        0.1537
     14 C         145.2923  142.3118  164.2022 C.3     1  UNL1        0.0738
     15 C         143.9253  142.5376  164.7769 C.ar    1  UNL1        0.1441
     16 N         142.8994  143.3019  163.9938 N.ar    1  UNL1       -0.2157
     17 C         141.5324  143.5277  164.5685 C.ar    1  UNL1        0.1382
     18 C         141.1913  142.9893  165.9263 C.ar    1  UNL1        0.0920
     19 C         142.2172  142.2250  166.7094 C.ar    1  UNL1        0.2289
     20 N         143.5842  141.9992  166.1347 N.ar    1  UNL1       -0.1966
     21 O         141.8762  141.6865  168.0673 O.3     1  UNL1       -0.4576
     22 C         140.7663  140.6894  168.2216 C.3     1  UNL1        0.2335
     23 C         140.5807  139.9693  169.5244 C.3     1  UNL1        0.1286
     24 C         142.0129  139.5252  169.4829 C.3     1  UNL1        0.0332
     25 C         139.1486  140.4133  169.5659 C.3     1  UNL1        0.0332
     26 O         140.3952  139.2492  170.8271 O.3     1  UNL1       -0.3831
     27 H         141.2284  138.8232  171.0825 H       1  UNL1        0.2104
     28 N         137.5516  140.3331  162.1745 N.pl3   1  UNL1       -0.3316
     29 H         136.7284  140.1027  161.6860 H       1  UNL1        0.1468
     30 C         138.1047  139.3880  163.1995 C.3     1  UNL1        0.0833
     31 C         138.0459  139.7428  164.6558 C.3     1  UNL1        0.0208
     32 C         138.5991  138.7976  165.6809 C.3     1  UNL1        0.0018
     33 C         139.2112  137.4979  165.2497 C.3     1  UNL1        0.0015
     34 C         139.2700  137.1431  163.7935 C.3     1  UNL1        0.0172
     35 C         138.7168  138.0882  162.7684 C.3     1  UNL1        0.0689
     36 N         138.7757  137.7334  161.3121 N.3     1  UNL1       -0.3209
     37 H         138.3577  138.4840  160.7622 H       1  UNL1        0.1189
     38 H         138.2610  136.8675  161.1520 H       1  UNL1        0.1189
@<TRIPOS>BOND
     1    14    15    1
     2    15    16   ar
     3    16    17   ar
     4    17    12    1
     5    12     1    1
     6     1     2   ar
     7     2     3   ar
     8     3    28    1
     9    30    28    1
    10    30    31    1
    11    31    32    1
    12    32    33    1
    13    33    34    1
    14    34    35    1
    15    35    36    1
    16     3     4   ar
    17     4     5   ar
    18     5     6   ar
    19     6     7    1
    20     7     8   am
    21     7     9    2
    22    17    18   ar
    23    18    19   ar
    24    19    21    1
    25    21    22    1
    26    22    23    1
    27    23    24    1
    28    23    25    1
    29    23    26    1
    30    19    20   ar
    31    20    15   ar
    32     6     1   ar
    33    35    30    1
    34    12    13    1
    35    28    29    1
    36    36    37    1
    37    36    38    1
    38     8    10    1
    39     8    11    1
    40    26    27    1
@<TRIPOS>MOLECULE
*****
 38 40 0 0 0
SMALL
GASTEIGER

@<TRIPOS>ATOM
      1 C         139.2344  141.2666  165.1326 C.ar    1  UNL1        0.0730
      2 C         139.8082  141.1375  166.5125 C.ar    1  UNL1        0.0322
      3 C         139.3708  140.0136  167.4045 C.ar    1  UNL1        0.0653
      4 C         138.3595  139.0189  166.9166 C.ar    1  UNL1        0.1133
      5 N         137.7858  139.1481  165.5367 N.ar    1  UNL1       -0.2367
      6 C         138.2232  140.2719  164.6447 C.ar    1  UNL1        0.1476
      7 C         137.6494  140.4010  163.2648 C.2     1  UNL1        0.2617
      8 N         137.7062  139.2396  162.3172 N.am    1  UNL1       -0.3240
      9 O         137.0189  141.6916  162.8325 O.2     1  UNL1       -0.2687
     10 H         138.1200  138.3926  162.6010 H       1  UNL1        0.1453
     11 H         137.3296  139.3244  161.4116 H       1  UNL1        0.1453
     12 N         139.6718  142.3905  164.2406 N.pl3   1  UNL1       -0.2964
     13 H         139.0083  143.0282  163.8910 H       1  UNL1        0.1537
     14 C         143.8628  145.3993  163.6221 C.3     1  UNL1        0.0738
     15 C         143.2157  144.0470  163.5721 C.ar    1  UNL1        0.1441
     16 N         141.7673  143.8949  163.9314 N.ar    1  UNL1       -0.2157
     17 C         141.1202  142.5425  163.8813 C.ar    1  UNL1        0.1382
     18 C         141.9214  141.3424  163.4720 C.ar    1  UNL1        0.0920
     19 C         143.3698  141.4945  163.1127 C.ar    1  UNL1        0.2289
     20 N         144.0169  142.8468  163.1627 N.ar    1  UNL1       -0.1966
     21 O         144.1711  140.2943  162.7033 O.3     1  UNL1       -0.4576
     22 C         143.7607  138.9265  163.1621 C.3     1  UNL1        0.2335
     23 C         142.9748  138.0333  162.2484 C.3     1  UNL1        0.1286
     24 C         141.9839  137.7823  163.3462 C.3     1  UNL1        0.0332
     25 C         143.9657  138.2843  161.1507 C.3     1  UNL1        0.0332
     26 O         142.1890  137.1402  161.3348 O.3     1  UNL1       -0.3831
     27 H         141.4154  136.7946  161.8072 H       1  UNL1        0.2104
     28 N         139.9445  139.8845  168.7844 N.pl3   1  UNL1       -0.3316
     29 H         139.6669  139.1396  169.3652 H       1  UNL1        0.1468
     30 C         140.9412  140.8903  169.2793 C.3     1  UNL1        0.0833
     31 C         140.4825  142.2530  169.7066 C.3     1  UNL1        0.0208
     32 C         141.4793  143.2588  170.2016 C.3     1  UNL1        0.0018
     33 C         142.9346  142.9019  170.2693 C.3     1  UNL1        0.0015
     34 C         143.3932  141.5391  169.8420 C.3     1  UNL1        0.0172
     35 C         142.3966  140.5334  169.3470 C.3     1  UNL1        0.0689
     36 N         142.8552  139.1706  168.9198 N.3     1  UNL1       -0.3209
     37 H         142.0516  138.6216  168.6147 H       1  UNL1        0.1189
     38 H         143.3084  138.7028  169.7047 H       1  UNL1        0.1189
@<TRIPOS>BOND
     1    14    15    1
     2    15    16   ar
     3    16    17   ar
     4    17    12    1
     5    12     1    1
     6     1     2   ar
     7     2     3   ar
     8     3    28    1
     9    30    28    1
    10    30    31    1
    11    31    32    1
    12    32    33    1
    13    33    34    1
    14    34    35    1
    15    35    36    1
    16     3     4   ar
    17     4     5   ar
    18     5     6   ar
    19     6     7    1
    20     7     8   am
    21     7     9    2
    22    17    18   ar
    23    18    19   ar
    24    19    21    1
    25    21    22    1
    26    22    23    1
    27    23    24    1
    28    23    25    1
    29    23    26    1
    30    19    20   ar
    31    20    15   ar
    32     6     1   ar
    33    35    30    1
    34    12    13    1
    35    28    29    1
    36    36    37    1
    37    36    38    1
    38     8    10    1
    39     8    11    1
    40    26    27    1
@<TRIPOS>MOLECULE
*****
 38 40 0 0 0
SMALL
GASTEIGER

@<TRIPOS>ATOM
      1 C         139.9894  140.8148  167.1756 C.ar    1  UNL1        0.0730
      2 C         139.6548  140.4011  165.7731 C.ar    1  UNL1        0.0322
      3 C         138.6340  139.3291  165.5307 C.ar    1  UNL1        0.0653
      4 C         137.9478  138.6708  166.6908 C.ar    1  UNL1        0.1133
      5 N         138.2824  139.0845  168.0933 N.ar    1  UNL1       -0.2367
      6 C         139.3032  140.1565  168.3356 C.ar    1  UNL1        0.1476
      7 C         139.6377  140.5702  169.7382 C.2     1  UNL1        0.2617
      8 N         140.0808  139.5432  170.7376 N.am    1  UNL1       -0.3240
      9 O         139.5292  142.0110  170.1412 O.2     1  UNL1       -0.2687
     10 H         140.1520  138.5976  170.4731 H       1  UNL1        0.1453
     11 H         140.3004  139.8148  171.6581 H       1  UNL1        0.1453
     12 N         141.0102  141.8868  167.4180 N.pl3   1  UNL1       -0.2964
     13 H         141.2114  142.1761  168.3373 H       1  UNL1        0.1537
     14 C         141.0019  145.1065  163.3396 C.3     1  UNL1        0.0738
     15 C         141.7203  144.1278  164.2206 C.ar    1  UNL1        0.1441
     16 N         141.0061  143.4967  165.3788 N.ar    1  UNL1       -0.2157
     17 C         141.7245  142.5180  166.2597 C.ar    1  UNL1        0.1382
     18 C         143.1570  142.1704  165.9825 C.ar    1  UNL1        0.0920
     19 C         143.8712  142.8016  164.8243 C.ar    1  UNL1        0.2289
     20 N         143.1529  143.7803  163.9433 N.ar    1  UNL1       -0.1966
     21 O         145.3039  142.4541  164.5469 O.3     1  UNL1       -0.4576
     22 C         145.6528  141.5981  163.3657 C.3     1  UNL1        0.2335
     23 C         144.7610  140.4562  162.9772 C.3     1  UNL1        0.1286
     24 C         145.1633  139.7192  164.2201 C.3     1  UNL1        0.0332
     25 C         144.3586  141.1932  161.7343 C.3     1  UNL1        0.0332
     26 O         143.8692  139.3144  162.5888 O.3     1  UNL1       -0.3831
     27 H         143.9222  138.6189  163.2629 H       1  UNL1        0.2104
     28 N         138.2994  138.9153  164.1283 N.pl3   1  UNL1       -0.3316
     29 H         137.7391  138.1215  163.9696 H       1  UNL1        0.1468
     30 C         138.8186  139.7110  162.9676 C.3     1  UNL1        0.0833
     31 C         140.1091  139.3224  162.3091 C.3     1  UNL1        0.0208
     32 C         140.6282  140.1182  161.1484 C.3     1  UNL1        0.0018
     33 C         139.8569  141.3025  160.6461 C.3     1  UNL1        0.0015
     34 C         138.5664  141.6911  161.3045 C.3     1  UNL1        0.0172
     35 C         138.0472  140.8954  162.4652 C.3     1  UNL1        0.0689
     36 N         136.7567  141.2840  163.1237 N.3     1  UNL1       -0.3209
     37 H         136.5576  140.6392  163.8885 H       1  UNL1        0.1189
     38 H         136.0008  141.2445  162.4400 H       1  UNL1        0.1189
@<TRIPOS>BOND
     1    14    15    1
     2    15    16   ar
     3    16    17   ar
     4    17    12    1
     5    12     1    1
     6     1     2   ar
     7     2     3   ar
     8     3    28    1
     9    30    28    1
    10    30    31    1
    11    31    32    1
    12    32    33    1
    13    33    34    1
    14    34    35    1
    15    35    36    1
    16     3     4   ar
    17     4     5   ar
    18     5     6   ar
    19     6     7    1
    20     7     8   am
    21     7     9    2
    22    17    18   ar
    23    18    19   ar
    24    19    21    1
    25    21    22    1
    26    22    23    1
    27    23    24    1
    28    23    25    1
    29    23    26    1
    30    19    20   ar
    31    20    15   ar
    32     6     1   ar
    33    35    30    1
    34    12    13    1
    35    28    29    1
    36    36    37    1
    37    36    38    1
    38     8    10    1
    39     8    11    1
    40    26    27    1
@<TRIPOS>MOLECULE
*****
 38 40 0 0 0
SMALL
GASTEIGER

@<TRIPOS>ATOM
      1 C         141.9135  141.2099  167.4287 C.ar    1  UNL1        0.0730
      2 C         140.7057  140.8133  166.6325 C.ar    1  UNL1        0.0322
      3 C         139.5200  140.2052  167.3211 C.ar    1  UNL1        0.0653
      4 C         139.5421  139.9936  168.8060 C.ar    1  UNL1        0.1133
      5 N         140.7498  140.3903  169.6022 N.ar    1  UNL1       -0.2367
      6 C         141.9356  140.9984  168.9135 C.ar    1  UNL1        0.1476
      7 C         143.1434  141.3950  169.7098 C.2     1  UNL1        0.2617
      8 N         143.6719  140.4818  170.7759 N.am    1  UNL1       -0.3240
      9 O         143.8226  142.7049  169.4399 O.2     1  UNL1       -0.2687
     10 H         143.2261  139.6220  170.9530 H       1  UNL1        0.1453
     11 H         144.4646  140.7421  171.2985 H       1  UNL1        0.1453
     12 N         143.0993  141.8180  166.7401 N.pl3   1  UNL1       -0.2964
     13 H         143.8694  142.1291  167.2686 H       1  UNL1        0.1537
     14 C         144.2123  139.8647  162.0555 C.3     1  UNL1        0.0738
     15 C         143.6681  140.9756  162.9038 C.ar    1  UNL1        0.1441
     16 N         143.6558  140.8414  164.3977 N.ar    1  UNL1       -0.2157
     17 C         143.1115  141.9523  165.2461 C.ar    1  UNL1        0.1382
     18 C         142.5796  143.1974  164.6006 C.ar    1  UNL1        0.0920
     19 C         142.5919  143.3316  163.1067 C.ar    1  UNL1        0.2289
     20 N         143.1361  142.2207  162.2583 N.ar    1  UNL1       -0.1966
     21 O         142.0600  144.5767  162.4611 O.3     1  UNL1       -0.4576
     22 C         140.8798  145.2851  163.0571 C.3     1  UNL1        0.2335
     23 C         139.4910  144.7873  162.7863 C.3     1  UNL1        0.1286
     24 C         139.2000  144.7987  164.2578 C.3     1  UNL1        0.0332
     25 C         139.7819  144.7759  161.3149 C.3     1  UNL1        0.0332
     26 O         138.1021  144.2895  162.5156 O.3     1  UNL1       -0.3831
     27 H         137.6254  144.1891  163.3543 H       1  UNL1        0.2104
     28 N         138.3122  139.8085  166.5249 N.pl3   1  UNL1       -0.3316
     29 H         137.4211  139.8210  166.9431 H       1  UNL1        0.1468
     30 C         138.4623  139.3929  165.0915 C.3     1  UNL1        0.0833
     31 C         139.0269  138.0441  164.7568 C.3     1  UNL1        0.0208
     32 C         139.1769  137.6285  163.3233 C.3     1  UNL1        0.0018
     33 C         138.7623  138.5617  162.2246 C.3     1  UNL1        0.0015
     34 C         138.1977  139.9104  162.5592 C.3     1  UNL1        0.0172
     35 C         138.0477  140.3261  163.9926 C.3     1  UNL1        0.0689
     36 N         137.4830  141.6748  164.3273 N.3     1  UNL1       -0.3209
     37 H         137.4530  141.7890  165.3404 H       1  UNL1        0.1189
     38 H         136.5392  141.7519  163.9483 H       1  UNL1        0.1189
@<TRIPOS>BOND
     1    14    15    1
     2    15    16   ar
     3    16    17   ar
     4    17    12    1
     5    12     1    1
     6     1     2   ar
     7     2     3   ar
     8     3    28    1
     9    30    28    1
    10    30    31    1
    11    31    32    1
    12    32    33    1
    13    33    34    1
    14    34    35    1
    15    35    36    1
    16     3     4   ar
    17     4     5   ar
    18     5     6   ar
    19     6     7    1
    20     7     8   am
    21     7     9    2
    22    17    18   ar
    23    18    19   ar
    24    19    21    1
    25    21    22    1
    26    22    23    1
    27    23    24    1
    28    23    25    1
    29    23    26    1
    30    19    20   ar
    31    20    15   ar
    32     6     1   ar
    33    35    30    1
    34    12    13    1
    35    28    29    1
    36    36    37    1
    37    36    38    1
    38     8    10    1
    39     8    11    1
    40    26    27    1
@<TRIPOS>MOLECULE
*****
 38 40 0 0 0
SMALL
GASTEIGER

@<TRIPOS>ATOM
      1 C         140.5613  139.3913  165.0801 C.ar    1  UNL1        0.0730
      2 C         140.7992  139.6696  166.5348 C.ar    1  UNL1        0.0322
      3 C         139.6697  139.5542  167.5150 C.ar    1  UNL1        0.0653
      4 C         138.3022  139.1605  167.0405 C.ar    1  UNL1        0.1133
      5 N         138.0643  138.8823  165.5859 N.ar    1  UNL1       -0.2367
      6 C         139.1938  138.9977  164.6057 C.ar    1  UNL1        0.1476
      7 C         138.9559  138.7194  163.1510 C.2     1  UNL1        0.2617
      8 N         137.8973  139.4771  162.4058 N.am    1  UNL1       -0.3240
      9 O         139.7765  137.6834  162.4416 O.2     1  UNL1       -0.2687
     10 H         137.3588  140.1571  162.8714 H       1  UNL1        0.1453
     11 H         137.7412  139.2945  161.4511 H       1  UNL1        0.1453
     12 N         141.6908  139.5067  164.0999 N.pl3   1  UNL1       -0.2964
     13 H         142.1551  138.6972  163.7864 H       1  UNL1        0.1537
     14 C         144.8095  142.4370  161.1525 C.3     1  UNL1        0.0738
     15 C         143.6722  142.3207  162.1236 C.ar    1  UNL1        0.1441
     16 N         143.2501  140.9719  162.6262 N.ar    1  UNL1       -0.2157
     17 C         142.1129  140.8556  163.5973 C.ar    1  UNL1        0.1382
     18 C         141.3977  142.0880  164.0659 C.ar    1  UNL1        0.0920
     19 C         141.8198  143.4368  163.5634 C.ar    1  UNL1        0.2289
     20 N         142.9570  143.5531  162.5922 N.ar    1  UNL1       -0.1966
     21 O         141.1046  144.6693  164.0320 O.3     1  UNL1       -0.4576
     22 C         139.6867  144.5766  164.5126 C.3     1  UNL1        0.2335
     23 C         138.5638  144.4832  163.5224 C.3     1  UNL1        0.1286
     24 C         137.8581  143.5059  164.4151 C.3     1  UNL1        0.0332
     25 C         139.2695  145.4604  162.6297 C.3     1  UNL1        0.0332
     26 O         137.4409  144.3897  162.5323 O.3     1  UNL1       -0.3831
     27 H         136.7685  143.7737  162.8632 H       1  UNL1        0.2104
     28 N         139.9075  139.8324  168.9696 N.pl3   1  UNL1       -0.3316
     29 H         139.4065  139.3335  169.6546 H       1  UNL1        0.1468
     30 C         140.9089  140.8708  169.3805 C.3     1  UNL1        0.0833
     31 C         140.4849  142.3011  169.5374 C.3     1  UNL1        0.0208
     32 C         141.4863  143.3395  169.9484 C.3     1  UNL1        0.0018
     33 C         142.9118  142.9477  170.2024 C.3     1  UNL1        0.0015
     34 C         143.3358  141.5174  170.0455 C.3     1  UNL1        0.0172
     35 C         142.3344  140.4790  169.6346 C.3     1  UNL1        0.0689
     36 N         142.7585  139.0488  169.4777 N.3     1  UNL1       -0.3209
     37 H         141.9563  138.4853  169.1960 H       1  UNL1        0.1189
     38 H         143.1222  138.7026  170.3655 H       1  UNL1        0.1189
@<TRIPOS>BOND
     1    14    15    1
     2    15    16   ar
     3    16    17   ar
     4    17    12    1
     5    12     1    1
     6     1     2   ar
     7     2     3   ar
     8     3    28    1
     9    30    28    1
    10    30    31    1
    11    31    32    1
    12    32    33    1
    13    33    34    1
    14    34    35    1
    15    35    36    1
    16     3     4   ar
    17     4     5   ar
    18     5     6   ar
    19     6     7    1
    20     7     8   am
    21     7     9    2
    22    17    18   ar
    23    18    19   ar
    24    19    21    1
    25    21    22    1
    26    22    23    1
    27    23    24    1
    28    23    25    1
    29    23    26    1
    30    19    20   ar
    31    20    15   ar
    32     6     1   ar
    33    35    30    1
    34    12    13    1
    35    28    29    1
    36    36    37    1
    37    36    38    1
    38     8    10    1
    39     8    11    1
    40    26    27    1
@<TRIPOS>MOLECULE
*****
 38 40 0 0 0
SMALL
GASTEIGER

@<TRIPOS>ATOM
      1 C         138.2973  140.2489  163.7435 C.ar    1  UNL1        0.0730
      2 C         138.2910  140.3175  165.2419 C.ar    1  UNL1        0.0322
      3 C         138.5031  139.0721  166.0506 C.ar    1  UNL1        0.0653
      4 C         138.7214  137.7581  165.3608 C.ar    1  UNL1        0.1133
      5 N         138.7277  137.6895  163.8624 N.ar    1  UNL1       -0.2367
      6 C         138.5156  138.9350  163.0537 C.ar    1  UNL1        0.1476
      7 C         138.5219  138.8664  161.5553 C.2     1  UNL1        0.2617
      8 N         139.6394  138.1654  160.8412 N.am    1  UNL1       -0.3240
      9 O         137.4107  139.4987  160.7709 O.2     1  UNL1       -0.2687
     10 H         140.3688  137.7504  161.3561 H       1  UNL1        0.1453
     11 H         139.6435  138.1204  159.8578 H       1  UNL1        0.1453
     12 N         138.0852  141.4944  162.9348 N.pl3   1  UNL1       -0.2964
     13 H         137.2191  141.6542  162.4950 H       1  UNL1        0.1537
     14 C         139.6900  146.2947  161.7593 C.3     1  UNL1        0.0738
     15 C         139.9953  144.8965  162.2085 C.ar    1  UNL1        0.1441
     16 N         138.8877  143.8945  162.3470 N.ar    1  UNL1       -0.2157
     17 C         139.1930  142.4963  162.7962 C.ar    1  UNL1        0.1382
     18 C         140.6059  142.1000  163.1069 C.ar    1  UNL1        0.0920
     19 C         141.7135  143.1019  162.9683 C.ar    1  UNL1        0.2289
     20 N         141.4082  144.5002  162.5191 N.ar    1  UNL1       -0.1966
     21 O         143.1265  142.7057  163.2789 O.3     1  UNL1       -0.4576
     22 C         143.8630  141.7742  162.3624 C.3     1  UNL1        0.2335
     23 C         144.4491  140.5019  162.8989 C.3     1  UNL1        0.1286
     24 C         144.1425  139.8138  161.6019 C.3     1  UNL1        0.0332
     25 C         144.7557  141.1901  164.1960 C.3     1  UNL1        0.0332
     26 O         145.0352  139.2297  163.4354 O.3     1  UNL1       -0.3831
     27 H         144.9746  138.5359  162.7602 H       1  UNL1        0.2104
     28 N         138.4968  139.1406  167.5490 N.pl3   1  UNL1       -0.3316
     29 H         137.7891  138.6849  168.0596 H       1  UNL1        0.1468
     30 C         139.5688  139.9035  168.2693 C.3     1  UNL1        0.0833
     31 C         140.8473  140.2475  167.5642 C.3     1  UNL1        0.0208
     32 C         141.9193  141.0104  168.2846 C.3     1  UNL1        0.0018
     33 C         141.7128  141.4292  169.7101 C.3     1  UNL1        0.0015
     34 C         140.4343  141.0851  170.4152 C.3     1  UNL1        0.0172
     35 C         139.3623  140.3223  169.6948 C.3     1  UNL1        0.0689
     36 N         138.0839  139.9783  170.3999 N.3     1  UNL1       -0.3209
     37 H         137.4737  139.4629  169.7655 H       1  UNL1        0.1189
     38 H         137.6184  140.8357  170.6977 H       1  UNL1        0.1189
@<TRIPOS>BOND
     1    14    15    1
     2    15    16   ar
     3    16    17   ar
     4    17    12    1
     5    12     1    1
     6     1     2   ar
     7     2     3   ar
     8     3    28    1
     9    30    28    1
    10    30    31    1
    11    31    32    1
    12    32    33    1
    13    33    34    1
    14    34    35    1
    15    35    36    1
    16     3     4   ar
    17     4     5   ar
    18     5     6   ar
    19     6     7    1
    20     7     8   am
    21     7     9    2
    22    17    18   ar
    23    18    19   ar
    24    19    21    1
    25    21    22    1
    26    22    23    1
    27    23    24    1
    28    23    25    1
    29    23    26    1
    30    19    20   ar
    31    20    15   ar
    32     6     1   ar
    33    35    30    1
    34    12    13    1
    35    28    29    1
    36    36    37    1
    37    36    38    1
    38     8    10    1
    39     8    11    1
    40    26    27    1
