@<TRIPOS>MOLECULE
*****
 30 34 0 0 0
SMALL
GASTEIGER

@<TRIPOS>ATOM
      1 N         142.7240  139.9553  160.7526 N.ar    1  UNL1       -0.3178
      2 C         144.1175  139.5790  161.1604 C.ar    1  UNL1        0.0779
      3 C         144.4503  139.3941  162.6113 C.ar    1  UNL1        0.0394
      4 C         143.3894  139.5855  163.6544 C.ar    1  UNL1        0.1035
      5 N         143.4203  139.4727  165.1499 N.ar    1  UNL1       -0.2249
      6 C         142.0458  139.7793  165.6663 C.ar    1  UNL1        0.1645
      7 N         141.1655  140.0816  164.4900 N.ar    1  UNL1       -0.2235
      8 C         141.9959  139.9618  163.2466 C.ar    1  UNL1        0.1178
      9 C         141.6632  140.1467  161.7957 C.ar    1  UNL1        0.0971
     10 C         141.6254  139.7830  167.1062 C.ar    1  UNL1        0.0632
     11 C         142.6108  139.4166  168.1761 C.ar    1  UNL1        0.0053
     12 C         142.1904  139.4203  169.6160 C.ar    1  UNL1        0.0002
     13 C         140.7847  139.7905  169.9859 C.ar    1  UNL1        0.0023
     14 C         139.7994  140.1569  168.9160 C.ar    1  UNL1        0.0297
     15 C         140.2197  140.1532  167.4761 C.ar    1  UNL1        0.1430
     16 F         139.2343  140.5197  166.4062 F       1  UNL1       -0.2041
     17 C         142.3912  140.1403  159.3017 C.3     1  UNL1        0.1555
     18 N         142.8773  136.9546  157.1384 N.ar    1  UNL1       -0.2092
     19 C         142.2592  137.6626  158.3074 C.ar    1  UNL1        0.1204
     20 C         142.7557  139.0781  158.3073 C.ar    1  UNL1        0.1240
     21 N         143.6806  139.2449  157.1383 N.ar    1  UNL1       -0.1308
     22 N         143.7558  137.9325  156.4158 N.ar    1  UNL1       -0.0598
     23 C         142.2129  132.6522  155.9990 C.ar    1  UNL1        0.1388
     24 C         143.1886  132.9986  157.0843 C.ar    1  UNL1        0.0384
     25 C         143.4100  134.4327  157.4641 C.ar    1  UNL1        0.0223
     26 C         142.6558  135.5205  156.7586 C.ar    1  UNL1        0.0847
     27 C         141.6801  135.1741  155.6732 C.ar    1  UNL1        0.0223
     28 C         141.4587  133.7400  155.2934 C.ar    1  UNL1        0.0384
     29 C         143.0203  130.1831  155.9654 C.3     1  UNL1        0.2525
     30 O         141.9914  131.2181  155.6192 O.3     1  UNL1       -0.4714
@<TRIPOS>BOND
     1    29    30    1
     2    30    23    1
     3    23    24   ar
     4    24    25   ar
     5    25    26   ar
     6    26    18    1
     7    18    19   ar
     8    19    20   ar
     9    20    17    1
    10    17     1    1
    11     1     2   ar
    12     2     3   ar
    13     3     4   ar
    14     4     5   ar
    15     5     6   ar
    16     6    10    1
    17    10    11   ar
    18    11    12   ar
    19    12    13   ar
    20    13    14   ar
    21    14    15   ar
    22    15    16    1
    23     6     7   ar
    24     7     8   ar
    25     8     9   ar
    26    20    21   ar
    27    21    22   ar
    28    26    27   ar
    29    27    28   ar
    30    28    23   ar
    31    22    18   ar
    32     9     1   ar
    33     8     4    1
    34    15    10   ar
@<TRIPOS>MOLECULE
*****
 30 34 0 0 0
SMALL
GASTEIGER

@<TRIPOS>ATOM
      1 N         142.7584  139.7623  159.5610 N.ar    1  UNL1       -0.3178
      2 C         144.0182  139.8485  160.3705 C.ar    1  UNL1        0.0779
      3 C         143.9505  139.8190  161.8686 C.ar    1  UNL1        0.0394
      4 C         142.6230  139.7033  162.5573 C.ar    1  UNL1        0.1035
      5 N         142.2462  139.6502  164.0083 N.ar    1  UNL1       -0.2249
      6 C         140.7535  139.5312  164.0955 C.ar    1  UNL1        0.1645
      7 N         140.2077  139.5107  162.6984 N.ar    1  UNL1       -0.2235
      8 C         141.3631  139.6171  161.7478 C.ar    1  UNL1        0.1178
      9 C         141.4308  139.6466  160.2496 C.ar    1  UNL1        0.0971
     10 C         139.9479  139.4473  165.3581 C.ar    1  UNL1        0.0632
     11 C         140.3186  140.2911  166.5416 C.ar    1  UNL1        0.0053
     12 C         139.5131  140.2073  167.8042 C.ar    1  UNL1        0.0002
     13 C         138.3369  139.2797  167.8832 C.ar    1  UNL1        0.0023
     14 C         137.9662  138.4360  166.6996 C.ar    1  UNL1        0.0297
     15 C         138.7717  138.5198  165.4371 C.ar    1  UNL1        0.1430
     16 F         138.4011  137.6761  164.2536 F       1  UNL1       -0.2041
     17 C         142.8260  139.7918  158.0627 C.3     1  UNL1        0.1555
     18 N         143.2928  136.2466  156.5530 N.ar    1  UNL1       -0.2092
     19 C         142.6415  137.1786  157.5314 C.ar    1  UNL1        0.1204
     20 C         143.1989  138.5526  157.3043 C.ar    1  UNL1        0.1240
     21 N         144.1946  138.4698  156.1855 N.ar    1  UNL1       -0.1308
     22 N         144.2526  137.0446  155.7212 N.ar    1  UNL1       -0.0598
     23 C         142.5052  131.8319  156.1789 C.ar    1  UNL1        0.1388
     24 C         143.6063  132.3244  157.0704 C.ar    1  UNL1        0.0384
     25 C         143.8688  133.7960  157.1951 C.ar    1  UNL1        0.0223
     26 C         143.0303  134.7751  156.4283 C.ar    1  UNL1        0.0847
     27 C         141.9291  134.2825  155.5367 C.ar    1  UNL1        0.0223
     28 C         141.6666  132.8110  155.4120 C.ar    1  UNL1        0.0384
     29 C         143.0897  129.3807  156.8109 C.3     1  UNL1        0.2525
     30 O         142.2427  130.3604  156.0542 O.3     1  UNL1       -0.4714
@<TRIPOS>BOND
     1    29    30    1
     2    30    23    1
     3    23    24   ar
     4    24    25   ar
     5    25    26   ar
     6    26    18    1
     7    18    19   ar
     8    19    20   ar
     9    20    17    1
    10    17     1    1
    11     1     2   ar
    12     2     3   ar
    13     3     4   ar
    14     4     5   ar
    15     5     6   ar
    16     6    10    1
    17    10    11   ar
    18    11    12   ar
    19    12    13   ar
    20    13    14   ar
    21    14    15   ar
    22    15    16    1
    23     6     7   ar
    24     7     8   ar
    25     8     9   ar
    26    20    21   ar
    27    21    22   ar
    28    26    27   ar
    29    27    28   ar
    30    28    23   ar
    31    22    18   ar
    32     9     1   ar
    33     8     4    1
    34    15    10   ar
@<TRIPOS>MOLECULE
*****
 30 34 0 0 0
SMALL
GASTEIGER

@<TRIPOS>ATOM
      1 N         140.9042  138.6618  156.2047 N.ar    1  UNL1       -0.3178
      2 C         142.3234  139.1449  156.1552 C.ar    1  UNL1        0.0779
      3 C         143.4435  138.1642  155.9727 C.ar    1  UNL1        0.0394
      4 C         143.1445  136.7003  155.8398 C.ar    1  UNL1        0.1035
      5 N         144.0340  135.5073  155.6513 N.ar    1  UNL1       -0.2249
      6 C         143.1646  134.2868  155.5843 C.ar    1  UNL1        0.1645
      7 N         141.7377  134.7256  155.7314 N.ar    1  UNL1       -0.2235
      8 C         141.7253  136.2172  155.8893 C.ar    1  UNL1        0.1178
      9 C         140.6052  137.1979  156.0717 C.ar    1  UNL1        0.0971
     10 C         143.6387  132.8754  155.4021 C.ar    1  UNL1        0.0632
     11 C         143.2095  132.0894  154.1988 C.ar    1  UNL1        0.0053
     12 C         143.6835  130.6781  154.0166 C.ar    1  UNL1        0.0002
     13 C         144.5867  130.0526  155.0378 C.ar    1  UNL1        0.0023
     14 C         145.0159  130.8385  156.2412 C.ar    1  UNL1        0.0297
     15 C         144.5419  132.2499  156.4234 C.ar    1  UNL1        0.1430
     16 F         144.9711  133.0359  157.6267 F       1  UNL1       -0.2041
     17 C         139.7839  139.6426  156.3871 C.3     1  UNL1        0.1555
     18 N         138.5017  139.4919  160.0475 N.ar    1  UNL1       -0.2092
     19 C         139.5659  139.2406  159.0207 C.ar    1  UNL1        0.1204
     20 C         139.0472  139.7054  157.6922 C.ar    1  UNL1        0.1240
     21 N         137.6625  140.2440  157.8979 N.ar    1  UNL1       -0.1308
     22 N         137.3253  140.1121  159.3536 N.ar    1  UNL1       -0.0598
     23 C         138.7879  138.5508  164.4386 C.ar    1  UNL1        0.1388
     24 C         139.4341  137.6441  163.4336 C.ar    1  UNL1        0.0384
     25 C         139.3387  137.9578  161.9699 C.ar    1  UNL1        0.0223
     26 C         138.5971  139.1782  161.5112 C.ar    1  UNL1        0.0847
     27 C         137.9508  140.0850  162.5163 C.ar    1  UNL1        0.0223
     28 C         138.0462  139.7712  163.9800 C.ar    1  UNL1        0.0384
     29 C         137.8410  138.7531  166.8495 C.3     1  UNL1        0.2525
     30 O         138.8833  138.2371  165.9023 O.3     1  UNL1       -0.4714
@<TRIPOS>BOND
     1    29    30    1
     2    30    23    1
     3    23    24   ar
     4    24    25   ar
     5    25    26   ar
     6    26    18    1
     7    18    19   ar
     8    19    20   ar
     9    20    17    1
    10    17     1    1
    11     1     2   ar
    12     2     3   ar
    13     3     4   ar
    14     4     5   ar
    15     5     6   ar
    16     6    10    1
    17    10    11   ar
    18    11    12   ar
    19    12    13   ar
    20    13    14   ar
    21    14    15   ar
    22    15    16    1
    23     6     7   ar
    24     7     8   ar
    25     8     9   ar
    26    20    21   ar
    27    21    22   ar
    28    26    27   ar
    29    27    28   ar
    30    28    23   ar
    31    22    18   ar
    32     9     1   ar
    33     8     4    1
    34    15    10   ar
@<TRIPOS>MOLECULE
*****
 30 34 0 0 0
SMALL
GASTEIGER

@<TRIPOS>ATOM
      1 N         139.5735  142.9745  158.1207 N.ar    1  UNL1       -0.3178
      2 C         138.6647  142.5179  157.0183 C.ar    1  UNL1        0.0779
      3 C         138.2316  143.4832  155.9550 C.ar    1  UNL1        0.0394
      4 C         138.7073  144.9052  155.9943 C.ar    1  UNL1        0.1035
      5 N         138.4499  146.0750  155.0912 N.ar    1  UNL1       -0.2249
      6 C         139.1996  147.2546  155.6356 C.ar    1  UNL1        0.1645
      7 N         139.9204  146.8139  156.8751 N.ar    1  UNL1       -0.2235
      8 C         139.6162  145.3619  157.0967 C.ar    1  UNL1        0.1178
      9 C         140.0492  144.3965  158.1600 C.ar    1  UNL1        0.0971
     10 C         139.2243  148.6330  155.0444 C.ar    1  UNL1        0.0632
     11 C         138.5978  149.7777  155.7841 C.ar    1  UNL1        0.0053
     12 C         138.6224  151.1560  155.1930 C.ar    1  UNL1        0.0002
     13 C         139.2735  151.3897  153.8621 C.ar    1  UNL1        0.0023
     14 C         139.9001  150.2450  153.1223 C.ar    1  UNL1        0.0297
     15 C         139.8754  148.8667  153.7135 C.ar    1  UNL1        0.1430
     16 F         140.5020  147.7220  152.9738 F       1  UNL1       -0.2041
     17 C         140.0066  142.0092  159.1841 C.3     1  UNL1        0.1555
     18 N         138.9155  141.6556  162.8921 N.ar    1  UNL1       -0.2092
     19 C         139.8486  141.3286  161.7642 C.ar    1  UNL1        0.1204
     20 C         139.3687  142.0522  160.5410 C.ar    1  UNL1        0.1240
     21 N         138.1391  142.8265  160.9130 N.ar    1  UNL1       -0.1308
     22 N         137.8589  142.5813  162.3661 N.ar    1  UNL1       -0.0598
     23 C         139.2305  140.1277  167.1130 C.ar    1  UNL1        0.1388
     24 C         140.0264  141.3258  166.6878 C.ar    1  UNL1        0.0384
     25 C         139.9214  141.8351  165.2808 C.ar    1  UNL1        0.0223
     26 C         139.0205  141.1463  164.2991 C.ar    1  UNL1        0.0847
     27 C         138.2245  139.9481  164.7244 C.ar    1  UNL1        0.0223
     28 C         138.3295  139.4388  166.1314 C.ar    1  UNL1        0.0384
     29 C         139.3777  140.5849  169.6663 C.3     1  UNL1        0.2525
     30 O         139.3354  139.6184  168.5200 O.3     1  UNL1       -0.4714
@<TRIPOS>BOND
     1    29    30    1
     2    30    23    1
     3    23    24   ar
     4    24    25   ar
     5    25    26   ar
     6    26    18    1
     7    18    19   ar
     8    19    20   ar
     9    20    17    1
    10    17     1    1
    11     1     2   ar
    12     2     3   ar
    13     3     4   ar
    14     4     5   ar
    15     5     6   ar
    16     6    10    1
    17    10    11   ar
    18    11    12   ar
    19    12    13   ar
    20    13    14   ar
    21    14    15   ar
    22    15    16    1
    23     6     7   ar
    24     7     8   ar
    25     8     9   ar
    26    20    21   ar
    27    21    22   ar
    28    26    27   ar
    29    27    28   ar
    30    28    23   ar
    31    22    18   ar
    32     9     1   ar
    33     8     4    1
    34    15    10   ar
@<TRIPOS>MOLECULE
*****
 30 34 0 0 0
SMALL
GASTEIGER

@<TRIPOS>ATOM
      1 N         141.1042  139.2060  159.4742 N.ar    1  UNL1       -0.3178
      2 C         139.8237  138.4592  159.7032 C.ar    1  UNL1        0.0779
      3 C         139.3308  138.2267  161.1007 C.ar    1  UNL1        0.0394
      4 C         140.1185  138.7410  162.2691 C.ar    1  UNL1        0.1035
      5 N         139.8845  138.6649  163.7489 N.ar    1  UNL1       -0.2249
      6 C         141.0205  139.3647  164.4342 C.ar    1  UNL1        0.1645
      7 N         141.9565  139.8732  163.3781 N.ar    1  UNL1       -0.2235
      8 C         141.3990  139.4878  162.0400 C.ar    1  UNL1        0.1178
      9 C         141.8918  139.7203  160.6426 C.ar    1  UNL1        0.0971
     10 C         141.1907  139.5273  165.9157 C.ar    1  UNL1        0.0632
     11 C         140.0471  140.0191  166.7525 C.ar    1  UNL1        0.0053
     12 C         140.2172  140.1818  168.2339 C.ar    1  UNL1        0.0002
     13 C         141.5310  139.8527  168.8785 C.ar    1  UNL1        0.0023
     14 C         142.6747  139.3609  168.0417 C.ar    1  UNL1        0.0297
     15 C         142.5045  139.1983  166.5603 C.ar    1  UNL1        0.1430
     16 F         143.6482  138.7065  165.7235 F       1  UNL1       -0.2041
     17 C         141.5971  139.4386  158.0766 C.3     1  UNL1        0.1555
     18 N         143.1778  136.2382  156.5522 N.ar    1  UNL1       -0.2092
     19 C         142.1102  136.9152  157.3595 C.ar    1  UNL1        0.1204
     20 C         142.4084  138.3851  157.3825 C.ar    1  UNL1        0.1240
     21 N         143.6604  138.6165  156.5894 N.ar    1  UNL1       -0.1308
     22 N         144.1359  137.2897  156.0762 N.ar    1  UNL1       -0.0598
     23 C         143.4574  131.8272  155.7066 C.ar    1  UNL1        0.1388
     24 C         142.9685  132.7652  154.6431 C.ar    1  UNL1        0.0384
     25 C         142.8753  134.2355  154.9250 C.ar    1  UNL1        0.0223
     26 C         143.2710  134.7678  156.2703 C.ar    1  UNL1        0.0847
     27 C         143.7599  133.8298  157.3338 C.ar    1  UNL1        0.0223
     28 C         143.8531  132.3595  157.0520 C.ar    1  UNL1        0.0384
     29 C         144.7566  129.8021  154.7266 C.3     1  UNL1        0.2525
     30 O         143.5506  130.3569  155.4247 O.3     1  UNL1       -0.4714
@<TRIPOS>BOND
     1    29    30    1
     2    30    23    1
     3    23    24   ar
     4    24    25   ar
     5    25    26   ar
     6    26    18    1
     7    18    19   ar
     8    19    20   ar
     9    20    17    1
    10    17     1    1
    11     1     2   ar
    12     2     3   ar
    13     3     4   ar
    14     4     5   ar
    15     5     6   ar
    16     6    10    1
    17    10    11   ar
    18    11    12   ar
    19    12    13   ar
    20    13    14   ar
    21    14    15   ar
    22    15    16    1
    23     6     7   ar
    24     7     8   ar
    25     8     9   ar
    26    20    21   ar
    27    21    22   ar
    28    26    27   ar
    29    27    28   ar
    30    28    23   ar
    31    22    18   ar
    32     9     1   ar
    33     8     4    1
    34    15    10   ar
@<TRIPOS>MOLECULE
*****
 30 34 0 0 0
SMALL
GASTEIGER

@<TRIPOS>ATOM
      1 N         142.6446  138.7695  158.3039 N.ar    1  UNL1       -0.3178
      2 C         142.9632  139.2935  156.9350 C.ar    1  UNL1        0.0779
      3 C         143.3146  138.3414  155.8305 C.ar    1  UNL1        0.0394
      4 C         143.3475  136.8653  156.0949 C.ar    1  UNL1        0.1035
      5 N         143.6570  135.6939  155.2105 N.ar    1  UNL1       -0.2249
      6 C         143.5297  134.4459  156.0328 C.ar    1  UNL1        0.1645
      7 N         143.1415  134.8460  157.4254 N.ar    1  UNL1       -0.2235
      8 C         143.0290  136.3412  157.4638 C.ar    1  UNL1        0.1178
      9 C         142.6775  137.2933  158.5683 C.ar    1  UNL1        0.0971
     10 C         143.7516  133.0439  155.5478 C.ar    1  UNL1        0.0632
     11 C         143.0407  132.5532  154.3215 C.ar    1  UNL1        0.0053
     12 C         143.2625  131.1513  153.8364 C.ar    1  UNL1        0.0002
     13 C         144.1953  130.2400  154.5777 C.ar    1  UNL1        0.0023
     14 C         144.9061  130.7307  155.8040 C.ar    1  UNL1        0.0297
     15 C         144.6843  132.1326  156.2891 C.ar    1  UNL1        0.1430
     16 F         145.3952  132.6232  157.5154 F       1  UNL1       -0.2041
     17 C         142.2932  139.7216  159.4085 C.3     1  UNL1        0.1555
     18 N         140.2169  139.0648  162.6214 N.ar    1  UNL1       -0.2092
     19 C         141.3809  139.7007  161.9209 C.ar    1  UNL1        0.1204
     20 C         141.3221  139.3082  160.4743 C.ar    1  UNL1        0.1240
     21 N         140.1217  138.4299  160.2808 N.ar    1  UNL1       -0.1308
     22 N         139.4386  138.2794  161.6077 N.ar    1  UNL1       -0.0598
     23 C         139.2323  139.4464  166.9957 C.ar    1  UNL1        0.1388
     24 C         140.5364  139.9705  166.4720 C.ar    1  UNL1        0.0384
     25 C         140.8646  139.8433  165.0139 C.ar    1  UNL1        0.0223
     26 C         139.8887  139.1920  164.0795 C.ar    1  UNL1        0.0847
     27 C         138.5844  138.6679  164.6032 C.ar    1  UNL1        0.0223
     28 C         138.2562  138.7951  166.0613 C.ar    1  UNL1        0.0384
     29 C         139.6781  140.5256  169.3165 C.3     1  UNL1        0.2525
     30 O         138.9041  139.5736  168.4538 O.3     1  UNL1       -0.4714
@<TRIPOS>BOND
     1    29    30    1
     2    30    23    1
     3    23    24   ar
     4    24    25   ar
     5    25    26   ar
     6    26    18    1
     7    18    19   ar
     8    19    20   ar
     9    20    17    1
    10    17     1    1
    11     1     2   ar
    12     2     3   ar
    13     3     4   ar
    14     4     5   ar
    15     5     6   ar
    16     6    10    1
    17    10    11   ar
    18    11    12   ar
    19    12    13   ar
    20    13    14   ar
    21    14    15   ar
    22    15    16    1
    23     6     7   ar
    24     7     8   ar
    25     8     9   ar
    26    20    21   ar
    27    21    22   ar
    28    26    27   ar
    29    27    28   ar
    30    28    23   ar
    31    22    18   ar
    32     9     1   ar
    33     8     4    1
    34    15    10   ar
@<TRIPOS>MOLECULE
*****
 30 34 0 0 0
SMALL
GASTEIGER

@<TRIPOS>ATOM
      1 N         143.6233  141.6887  159.3918 N.ar    1  UNL1       -0.3178
      2 C         143.1524  140.6063  158.4662 C.ar    1  UNL1        0.0779
      3 C         143.9198  140.3048  157.2131 C.ar    1  UNL1        0.0394
      4 C         145.1580  141.0855  156.8856 C.ar    1  UNL1        0.1035
      5 N         146.1137  141.0142  155.7317 N.ar    1  UNL1       -0.2249
      6 C         147.1752  142.0524  155.9441 C.ar    1  UNL1        0.1645
      7 N         146.8756  142.7654  157.2294 N.ar    1  UNL1       -0.2235
      8 C         145.6288  142.1679  157.8112 C.ar    1  UNL1        0.1178
      9 C         144.8615  142.4694  159.0643 C.ar    1  UNL1        0.0971
     10 C         148.3332  142.3291  155.0316 C.ar    1  UNL1        0.0632
     11 C         149.6549  141.6625  155.2738 C.ar    1  UNL1        0.0053
     12 C         150.8128  141.9391  154.3613 C.ar    1  UNL1        0.0002
     13 C         150.6490  142.8824  153.2066 C.ar    1  UNL1        0.0023
     14 C         149.3273  143.5491  152.9644 C.ar    1  UNL1        0.0297
     15 C         148.1694  143.2724  153.8769 C.ar    1  UNL1        0.1430
     16 F         146.8477  143.9391  153.6347 F       1  UNL1       -0.2041
     17 C         142.8560  141.9903  160.6449 C.3     1  UNL1        0.1555
     18 N         143.4196  140.8564  164.3140 N.ar    1  UNL1       -0.2092
     19 C         142.7063  141.6981  163.2977 C.ar    1  UNL1        0.1204
     20 C         143.2772  141.3782  161.9479 C.ar    1  UNL1        0.1240
     21 N         144.3433  140.3389  162.1300 N.ar    1  UNL1       -0.1308
     22 N         144.4313  140.0163  163.5922 N.ar    1  UNL1       -0.0598
     23 C         142.6581  140.8522  168.7490 C.ar    1  UNL1        0.1388
     24 C         142.6508  139.5611  167.9856 C.ar    1  UNL1        0.0384
     25 C         142.9046  139.5625  166.5072 C.ar    1  UNL1        0.0223
     26 C         143.1658  140.8550  165.7923 C.ar    1  UNL1        0.0847
     27 C         143.1731  142.1462  166.5558 C.ar    1  UNL1        0.0223
     28 C         142.9192  142.1448  168.0341 C.ar    1  UNL1        0.0384
     29 C         141.6532  141.9843  170.8605 C.3     1  UNL1        0.2525
     30 O         142.4043  140.8508  170.2273 O.3     1  UNL1       -0.4714
@<TRIPOS>BOND
     1    29    30    1
     2    30    23    1
     3    23    24   ar
     4    24    25   ar
     5    25    26   ar
     6    26    18    1
     7    18    19   ar
     8    19    20   ar
     9    20    17    1
    10    17     1    1
    11     1     2   ar
    12     2     3   ar
    13     3     4   ar
    14     4     5   ar
    15     5     6   ar
    16     6    10    1
    17    10    11   ar
    18    11    12   ar
    19    12    13   ar
    20    13    14   ar
    21    14    15   ar
    22    15    16    1
    23     6     7   ar
    24     7     8   ar
    25     8     9   ar
    26    20    21   ar
    27    21    22   ar
    28    26    27   ar
    29    27    28   ar
    30    28    23   ar
    31    22    18   ar
    32     9     1   ar
    33     8     4    1
    34    15    10   ar
@<TRIPOS>MOLECULE
*****
 30 34 0 0 0
SMALL
GASTEIGER

@<TRIPOS>ATOM
      1 N         140.6185  138.6523  161.4271 N.ar    1  UNL1       -0.3178
      2 C         139.1889  138.2350  161.6063 C.ar    1  UNL1        0.0779
      3 C         138.4755  138.5353  162.8911 C.ar    1  UNL1        0.0394
      4 C         139.1916  139.2529  163.9967 C.ar    1  UNL1        0.1035
      5 N         138.7512  139.6828  165.3647 N.ar    1  UNL1       -0.2249
      6 C         139.9087  140.3658  166.0309 C.ar    1  UNL1        0.1645
      7 N         141.0643  140.3579  165.0747 N.ar    1  UNL1       -0.2235
      8 C         140.6212  139.6701  163.8175 C.ar    1  UNL1        0.1178
      9 C         141.3346  139.3698  162.5327 C.ar    1  UNL1        0.0971
     10 C         139.9102  140.9534  167.4110 C.ar    1  UNL1        0.0632
     11 C         139.4296  140.1373  168.5742 C.ar    1  UNL1        0.0053
     12 C         139.4312  140.7249  169.9543 C.ar    1  UNL1        0.0002
     13 C         139.9133  142.1286  170.1712 C.ar    1  UNL1        0.0023
     14 C         140.3938  142.9448  169.0080 C.ar    1  UNL1        0.0297
     15 C         140.3923  142.3572  167.6279 C.ar    1  UNL1        0.1430
     16 F         140.8729  143.1733  166.4647 F       1  UNL1       -0.2041
     17 C         141.3320  138.3520  160.1423 C.3     1  UNL1        0.1555
     18 N         143.5353  140.7341  158.0123 N.ar    1  UNL1       -0.2092
     19 C         143.2970  139.4064  158.6685 C.ar    1  UNL1        0.1204
     20 C         141.9669  139.4630  159.3596 C.ar    1  UNL1        0.1240
     21 N         141.3830  140.8255  159.1305 N.ar    1  UNL1       -0.1308
     22 N         142.3523  141.6111  158.2978 N.ar    1  UNL1       -0.0598
     23 C         147.1618  141.8840  155.6091 C.ar    1  UNL1        0.1388
     24 C         146.8440  142.6113  156.8818 C.ar    1  UNL1        0.0384
     25 C         145.6351  142.2280  157.6829 C.ar    1  UNL1        0.0223
     26 C         144.7441  141.1174  157.2112 C.ar    1  UNL1        0.0847
     27 C         145.0620  140.3900  155.9385 C.ar    1  UNL1        0.0223
     28 C         146.2709  140.7732  155.1375 C.ar    1  UNL1        0.0384
     29 C         149.7139  141.6995  155.1591 C.3     1  UNL1        0.2525
     30 O         148.3707  142.2672  154.8081 O.3     1  UNL1       -0.4714
@<TRIPOS>BOND
     1    29    30    1
     2    30    23    1
     3    23    24   ar
     4    24    25   ar
     5    25    26   ar
     6    26    18    1
     7    18    19   ar
     8    19    20   ar
     9    20    17    1
    10    17     1    1
    11     1     2   ar
    12     2     3   ar
    13     3     4   ar
    14     4     5   ar
    15     5     6   ar
    16     6    10    1
    17    10    11   ar
    18    11    12   ar
    19    12    13   ar
    20    13    14   ar
    21    14    15   ar
    22    15    16    1
    23     6     7   ar
    24     7     8   ar
    25     8     9   ar
    26    20    21   ar
    27    21    22   ar
    28    26    27   ar
    29    27    28   ar
    30    28    23   ar
    31    22    18   ar
    32     9     1   ar
    33     8     4    1
    34    15    10   ar
@<TRIPOS>MOLECULE
*****
 30 34 0 0 0
SMALL
GASTEIGER

@<TRIPOS>ATOM
      1 N         140.6829  141.3971  159.0059 N.ar    1  UNL1       -0.3178
      2 C         142.1670  141.6101  159.0494 C.ar    1  UNL1        0.0779
      3 C         143.0925  140.5480  158.5343 C.ar    1  UNL1        0.0394
      4 C         142.5338  139.2730  157.9756 C.ar    1  UNL1        0.1035
      5 N         143.1940  138.0555  157.3993 N.ar    1  UNL1       -0.2249
      6 C         142.1178  137.0901  156.9997 C.ar    1  UNL1        0.1645
      7 N         140.7926  137.7109  157.3289 N.ar    1  UNL1       -0.2235
      8 C         141.0497  139.0600  157.9320 C.ar    1  UNL1        0.1178
      9 C         140.1242  140.1221  158.4472 C.ar    1  UNL1        0.0971
     10 C         142.3296  135.7407  156.3796 C.ar    1  UNL1        0.0632
     11 C         143.4700  134.8779  156.8325 C.ar    1  UNL1        0.0053
     12 C         143.6818  133.5285  156.2125 C.ar    1  UNL1        0.0002
     13 C         142.7532  133.0420  155.1397 C.ar    1  UNL1        0.0023
     14 C         141.6128  133.9048  154.6868 C.ar    1  UNL1        0.0297
     15 C         141.4010  135.2541  155.3068 C.ar    1  UNL1        0.1430
     16 F         140.2606  136.1170  154.8539 F       1  UNL1       -0.2041
     17 C         139.7573  142.4592  159.5211 C.3     1  UNL1        0.1555
     18 N         138.7634  141.7445  163.2044 N.ar    1  UNL1       -0.2092
     19 C         139.7522  141.6806  162.0782 C.ar    1  UNL1        0.1204
     20 C         139.1213  142.3093  160.8712 C.ar    1  UNL1        0.1240
     21 N         137.7426  142.7617  161.2515 N.ar    1  UNL1       -0.1308
     22 N         137.5214  142.4127  162.6934 N.ar    1  UNL1       -0.0598
     23 C         139.4097  140.2024  167.3821 C.ar    1  UNL1        0.1388
     24 C         138.4493  139.5046  166.4653 C.ar    1  UNL1        0.0384
     25 C         138.2339  140.0186  165.0727 C.ar    1  UNL1        0.0223
     26 C         138.9789  141.2304  164.5970 C.ar    1  UNL1        0.0847
     27 C         139.9393  141.9283  165.5138 C.ar    1  UNL1        0.0223
     28 C         140.1547  141.4142  166.9064 C.ar    1  UNL1        0.0384
     29 C         138.9492  140.3580  169.9343 C.3     1  UNL1        0.2525
     30 O         139.6251  139.6883  168.7747 O.3     1  UNL1       -0.4714
@<TRIPOS>BOND
     1    29    30    1
     2    30    23    1
     3    23    24   ar
     4    24    25   ar
     5    25    26   ar
     6    26    18    1
     7    18    19   ar
     8    19    20   ar
     9    20    17    1
    10    17     1    1
    11     1     2   ar
    12     2     3   ar
    13     3     4   ar
    14     4     5   ar
    15     5     6   ar
    16     6    10    1
    17    10    11   ar
    18    11    12   ar
    19    12    13   ar
    20    13    14   ar
    21    14    15   ar
    22    15    16    1
    23     6     7   ar
    24     7     8   ar
    25     8     9   ar
    26    20    21   ar
    27    21    22   ar
    28    26    27   ar
    29    27    28   ar
    30    28    23   ar
    31    22    18   ar
    32     9     1   ar
    33     8     4    1
    34    15    10   ar
