@<TRIPOS>MOLECULE
*****
 27 30 0 0 0
SMALL
GASTEIGER

@<TRIPOS>ATOM
      1 C         141.8823  140.1084  165.2482 C.ar    1  UNL1        0.1016
      2 C         143.1409  139.3196  165.4571 C.ar    1  UNL1        0.0240
      3 C         144.3775  139.6607  164.6796 C.ar    1  UNL1        0.0404
      4 C         144.3554  140.7906  163.6933 C.ar    1  UNL1        0.1639
      5 N         145.4114  141.3546  162.7894 N.ar    1  UNL1       -0.2234
      6 C         144.8053  142.4919  162.0219 C.ar    1  UNL1        0.1197
      7 C         143.3748  142.6308  162.4514 C.ar    1  UNL1        0.1037
      8 N         143.0968  141.5794  163.4844 N.ar    1  UNL1       -0.2107
      9 N         141.8603  141.2383  164.2619 N.ar    1  UNL1       -0.1638
     10 C         139.2799  139.8575  168.2339 C.ar    1  UNL1        0.1808
     11 C         138.1723  139.0851  167.5806 C.ar    1  UNL1        0.0519
     12 C         138.3015  138.6538  166.1497 C.ar    1  UNL1        0.0045
     13 C         139.5382  138.9949  165.3723 C.ar    1  UNL1        0.0018
     14 C         140.6456  139.7672  166.0256 C.ar    1  UNL1        0.0237
     15 C         140.5165  140.1986  167.4565 C.ar    1  UNL1        0.0535
     16 C         140.2133  141.1439  170.2892 C.3     1  UNL1        0.3254
     17 S         139.1507  140.2888  169.6648 S.O     1  UNL1        0.0581
     18 O         137.9591  139.8651  170.4712 O.co2   1  UNL1       -0.6774
     19 C         142.3945  143.6435  161.9381 C.ar    1  UNL1        0.0236
     20 C         141.4740  144.3464  162.8913 C.ar    1  UNL1        0.0018
     21 C         140.4936  145.3591  162.3780 C.ar    1  UNL1        0.0045
     22 C         140.4337  145.6688  160.9115 C.ar    1  UNL1        0.0519
     23 C         141.3542  144.9658  159.9584 C.ar    1  UNL1        0.1808
     24 C         142.3346  143.9532  160.4717 C.ar    1  UNL1        0.0535
     25 S         141.2944  145.2755  158.4918 S.O     1  UNL1        0.0581
     26 C         140.1524  144.7657  157.6636 C.3     1  UNL1        0.3254
     27 O         142.3766  146.0949  157.8536 O.co2   1  UNL1       -0.6774
@<TRIPOS>UNITY_ATOM_ATTR
17 1
charge 1
18 1
charge -1
25 1
charge 1
27 1
charge -1
@<TRIPOS>BOND
     1    16    17    1
     2    17    18    2
     3    17    10    1
     4    10    11   ar
     5    11    12   ar
     6    12    13   ar
     7    13    14   ar
     8    14     1    1
     9     1     2   ar
    10     2     3   ar
    11     3     4   ar
    12     4     5   ar
    13     5     6   ar
    14     6     7   ar
    15     7    19    1
    16    19    20   ar
    17    20    21   ar
    18    21    22   ar
    19    22    23   ar
    20    23    25    1
    21    25    26    1
    22    25    27    2
    23    23    24   ar
    24     7     8   ar
    25     8     9   ar
    26    14    15   ar
    27    15    10   ar
    28     9     1   ar
    29     8     4   ar
    30    24    19   ar
@<TRIPOS>MOLECULE
*****
 27 30 0 0 0
SMALL
GASTEIGER

@<TRIPOS>ATOM
      1 C         139.5632  139.3129  166.5102 C.ar    1  UNL1        0.1016
      2 C         138.6210  138.2147  166.1153 C.ar    1  UNL1        0.0240
      3 C         138.7855  137.5244  164.7938 C.ar    1  UNL1        0.0404
      4 C         139.8923  137.9324  163.8672 C.ar    1  UNL1        0.1639
      5 N         140.2991  137.4379  162.5107 N.ar    1  UNL1       -0.2234
      6 C         141.4928  138.2306  162.0673 C.ar    1  UNL1        0.1197
      7 C         141.8237  139.2150  163.1497 C.ar    1  UNL1        0.1037
      8 N         140.8345  139.0306  164.2621 N.ar    1  UNL1       -0.2107
      9 N         140.6700  139.7209  165.5836 N.ar    1  UNL1       -0.1638
     10 C         140.0807  141.8862  169.4869 C.ar    1  UNL1        0.1808
     11 C         139.0698  141.3840  170.4748 C.ar    1  UNL1        0.0519
     12 C         138.2234  140.1914  170.1412 C.ar    1  UNL1        0.0045
     13 C         138.3878  139.5011  168.8196 C.ar    1  UNL1        0.0018
     14 C         139.3987  140.0033  167.8318 C.ar    1  UNL1        0.0237
     15 C         140.2452  141.1958  168.1655 C.ar    1  UNL1        0.0535
     16 C         142.4202  142.9461  169.8786 C.3     1  UNL1        0.3254
     17 S         140.9272  143.0787  169.8206 S.O     1  UNL1        0.0581
     18 O         140.2807  144.4038  170.0963 O.co2   1  UNL1       -0.6774
     19 C         142.9467  140.2091  163.1242 C.ar    1  UNL1        0.0236
     20 C         144.3466  139.7674  163.4328 C.ar    1  UNL1        0.0018
     21 C         145.4695  140.7615  163.4073 C.ar    1  UNL1        0.0045
     22 C         145.1927  142.1974  163.0732 C.ar    1  UNL1        0.0519
     23 C         143.7928  142.6391  162.7647 C.ar    1  UNL1        0.1808
     24 C         142.6698  141.6450  162.7901 C.ar    1  UNL1        0.0535
     25 S         143.5158  144.0750  162.4306 S.O     1  UNL1        0.0581
     26 C         143.7979  145.1479  163.4402 C.3     1  UNL1        0.3254
     27 O         142.9568  144.4381  161.0868 O.co2   1  UNL1       -0.6774
@<TRIPOS>UNITY_ATOM_ATTR
17 1
charge 1
18 1
charge -1
25 1
charge 1
27 1
charge -1
@<TRIPOS>BOND
     1    16    17    1
     2    17    18    2
     3    17    10    1
     4    10    11   ar
     5    11    12   ar
     6    12    13   ar
     7    13    14   ar
     8    14     1    1
     9     1     2   ar
    10     2     3   ar
    11     3     4   ar
    12     4     5   ar
    13     5     6   ar
    14     6     7   ar
    15     7    19    1
    16    19    20   ar
    17    20    21   ar
    18    21    22   ar
    19    22    23   ar
    20    23    25    1
    21    25    26    1
    22    25    27    2
    23    23    24   ar
    24     7     8   ar
    25     8     9   ar
    26    14    15   ar
    27    15    10   ar
    28     9     1   ar
    29     8     4   ar
    30    24    19   ar
@<TRIPOS>MOLECULE
*****
 27 30 0 0 0
SMALL
GASTEIGER

@<TRIPOS>ATOM
      1 C         139.8345  139.3494  164.9316 C.ar    1  UNL1        0.1016
      2 C         139.2853  138.0018  164.5677 C.ar    1  UNL1        0.0240
      3 C         138.6026  137.8018  163.2472 C.ar    1  UNL1        0.0404
      4 C         138.4691  138.9494  162.2905 C.ar    1  UNL1        0.1639
      5 N         137.8512  139.0532  160.9275 N.ar    1  UNL1       -0.2234
      6 C         138.0186  140.4649  160.4491 C.ar    1  UNL1        0.1197
      7 C         138.7400  141.2336  161.5162 C.ar    1  UNL1        0.1037
      8 N         139.0184  140.2969  162.6543 N.ar    1  UNL1       -0.2107
      9 N         139.7011  140.4969  163.9748 N.ar    1  UNL1       -0.1638
     10 C         140.4217  140.2581  168.7499 C.ar    1  UNL1        0.1808
     11 C         141.8826  139.9495  168.8933 C.ar    1  UNL1        0.0519
     12 C         142.6609  139.4410  167.7162 C.ar    1  UNL1        0.0045
     13 C         141.9781  139.2409  166.3956 C.ar    1  UNL1        0.0018
     14 C         140.5172  139.5494  166.2522 C.ar    1  UNL1        0.0237
     15 C         139.7390  140.0580  167.4293 C.ar    1  UNL1        0.0535
     16 C         139.8645  142.1642  170.4251 C.3     1  UNL1        0.3254
     17 S         139.6434  140.7666  169.9271 S.O     1  UNL1        0.0581
     18 O         138.6442  139.8777  170.6062 O.co2   1  UNL1       -0.6774
     19 C         139.1168  142.6842  161.4560 C.ar    1  UNL1        0.0236
     20 C         138.7510  143.6016  162.5850 C.ar    1  UNL1        0.0018
     21 C         139.1278  145.0523  162.5247 C.ar    1  UNL1        0.0045
     22 C         139.8703  145.5856  161.3355 C.ar    1  UNL1        0.0519
     23 C         140.2361  144.6682  160.2066 C.ar    1  UNL1        0.1808
     24 C         139.8593  143.2175  160.2668 C.ar    1  UNL1        0.0535
     25 S         140.9787  145.2014  159.0173 S.O     1  UNL1        0.0581
     26 C         140.2494  145.9877  157.9685 C.3     1  UNL1        0.3254
     27 O         142.4505  144.9484  158.8768 O.co2   1  UNL1       -0.6774
@<TRIPOS>UNITY_ATOM_ATTR
17 1
charge 1
18 1
charge -1
25 1
charge 1
27 1
charge -1
@<TRIPOS>BOND
     1    16    17    1
     2    17    18    2
     3    17    10    1
     4    10    11   ar
     5    11    12   ar
     6    12    13   ar
     7    13    14   ar
     8    14     1    1
     9     1     2   ar
    10     2     3   ar
    11     3     4   ar
    12     4     5   ar
    13     5     6   ar
    14     6     7   ar
    15     7    19    1
    16    19    20   ar
    17    20    21   ar
    18    21    22   ar
    19    22    23   ar
    20    23    25    1
    21    25    26    1
    22    25    27    2
    23    23    24   ar
    24     7     8   ar
    25     8     9   ar
    26    14    15   ar
    27    15    10   ar
    28     9     1   ar
    29     8     4   ar
    30    24    19   ar
@<TRIPOS>MOLECULE
*****
 27 30 0 0 0
SMALL
GASTEIGER

@<TRIPOS>ATOM
      1 C         142.5041  142.5273  162.7407 C.ar    1  UNL1        0.1016
      2 C         143.8976  142.2235  162.2762 C.ar    1  UNL1        0.0240
      3 C         144.6706  141.1030  162.9061 C.ar    1  UNL1        0.0404
      4 C         144.0501  140.2862  164.0005 C.ar    1  UNL1        0.1639
      5 N         144.5645  139.1285  164.8038 N.ar    1  UNL1       -0.2234
      6 C         143.4889  138.7167  165.7647 C.ar    1  UNL1        0.1197
      7 C         142.3097  139.6199  165.5553 C.ar    1  UNL1        0.1037
      8 N         142.6566  140.5899  164.4650 N.ar    1  UNL1       -0.2107
      9 N         141.8836  141.7104  163.8351 N.ar    1  UNL1       -0.1638
     10 C         141.1422  145.0813  160.0255 C.ar    1  UNL1        0.1808
     11 C         140.1849  145.8890  160.8509 C.ar    1  UNL1        0.0519
     12 C         140.0007  145.5760  162.3063 C.ar    1  UNL1        0.0045
     13 C         140.7738  144.4554  162.9362 C.ar    1  UNL1        0.0018
     14 C         141.7310  143.6479  162.1108 C.ar    1  UNL1        0.0237
     15 C         141.9152  143.9608  160.6554 C.ar    1  UNL1        0.0535
     16 C         140.1835  145.9472  157.7713 C.3     1  UNL1        0.3254
     17 S         141.3265  145.3942  158.5701 S.O     1  UNL1        0.0581
     18 O         142.6536  145.1543  157.9135 O.co2   1  UNL1       -0.6774
     19 C         141.0116  139.5632  166.3047 C.ar    1  UNL1        0.0236
     20 C         139.7918  138.9862  165.6494 C.ar    1  UNL1        0.0018
     21 C         138.4937  138.9295  166.3988 C.ar    1  UNL1        0.0045
     22 C         138.4152  139.4496  167.8035 C.ar    1  UNL1        0.0519
     23 C         139.6349  140.0265  168.4589 C.ar    1  UNL1        0.1808
     24 C         140.9331  140.0833  167.7094 C.ar    1  UNL1        0.0535
     25 S         139.5565  140.5467  169.8637 S.O     1  UNL1        0.0581
     26 C         139.7469  142.0099  170.1333 C.3     1  UNL1        0.3254
     27 O         139.2877  139.6036  170.9987 O.co2   1  UNL1       -0.6774
@<TRIPOS>UNITY_ATOM_ATTR
17 1
charge 1
18 1
charge -1
25 1
charge 1
27 1
charge -1
@<TRIPOS>BOND
     1    16    17    1
     2    17    18    2
     3    17    10    1
     4    10    11   ar
     5    11    12   ar
     6    12    13   ar
     7    13    14   ar
     8    14     1    1
     9     1     2   ar
    10     2     3   ar
    11     3     4   ar
    12     4     5   ar
    13     5     6   ar
    14     6     7   ar
    15     7    19    1
    16    19    20   ar
    17    20    21   ar
    18    21    22   ar
    19    22    23   ar
    20    23    25    1
    21    25    26    1
    22    25    27    2
    23    23    24   ar
    24     7     8   ar
    25     8     9   ar
    26    14    15   ar
    27    15    10   ar
    28     9     1   ar
    29     8     4   ar
    30    24    19   ar
@<TRIPOS>MOLECULE
*****
 27 30 0 0 0
SMALL
GASTEIGER

@<TRIPOS>ATOM
      1 C         141.9727  139.9954  165.2735 C.ar    1  UNL1        0.1016
      2 C         143.2500  139.3485  165.7206 C.ar    1  UNL1        0.0240
      3 C         144.5297  139.6327  164.9916 C.ar    1  UNL1        0.0404
      4 C         144.5322  140.5639  163.8156 C.ar    1  UNL1        0.1639
      5 N         145.6310  141.0313  162.9077 N.ar    1  UNL1       -0.2234
      6 C         145.0327  141.9671  161.8996 C.ar    1  UNL1        0.1197
      7 C         143.5642  142.0780  162.1844 C.ar    1  UNL1        0.1037
      8 N         143.2548  141.2108  163.3685 N.ar    1  UNL1       -0.2107
      9 N         141.9751  140.9266  164.0975 N.ar    1  UNL1       -0.1638
     10 C         139.2462  139.8706  168.1546 C.ar    1  UNL1        0.1808
     11 C         138.1333  139.1429  167.4605 C.ar    1  UNL1        0.0519
     12 C         138.3002  138.6993  166.0373 C.ar    1  UNL1        0.0045
     13 C         139.5800  138.9835  165.3083 C.ar    1  UNL1        0.0018
     14 C         140.6928  139.7112  166.0025 C.ar    1  UNL1        0.0237
     15 C         140.5259  140.1548  167.4257 C.ar    1  UNL1        0.0535
     16 C         140.0464  141.2919  170.1770 C.3     1  UNL1        0.3254
     17 S         139.0793  140.3142  169.5778 S.O     1  UNL1        0.0581
     18 O         137.9454  139.7801  170.4018 O.co2   1  UNL1       -0.6774
     19 C         142.5781  142.9100  161.4194 C.ar    1  UNL1        0.0236
     20 C         142.5310  142.8298  159.9222 C.ar    1  UNL1        0.0018
     21 C         141.5449  143.6619  159.1572 C.ar    1  UNL1        0.0045
     22 C         140.6059  144.5742  159.8892 C.ar    1  UNL1        0.0519
     23 C         140.6530  144.6544  161.3863 C.ar    1  UNL1        0.1808
     24 C         141.6390  143.8223  162.1514 C.ar    1  UNL1        0.0535
     25 S         139.7139  145.5668  162.1185 S.O     1  UNL1        0.0581
     26 C         138.8887  145.0390  163.2545 C.3     1  UNL1        0.3254
     27 O         139.6000  147.0069  161.7145 O.co2   1  UNL1       -0.6774
@<TRIPOS>UNITY_ATOM_ATTR
17 1
charge 1
18 1
charge -1
25 1
charge 1
27 1
charge -1
@<TRIPOS>BOND
     1    16    17    1
     2    17    18    2
     3    17    10    1
     4    10    11   ar
     5    11    12   ar
     6    12    13   ar
     7    13    14   ar
     8    14     1    1
     9     1     2   ar
    10     2     3   ar
    11     3     4   ar
    12     4     5   ar
    13     5     6   ar
    14     6     7   ar
    15     7    19    1
    16    19    20   ar
    17    20    21   ar
    18    21    22   ar
    19    22    23   ar
    20    23    25    1
    21    25    26    1
    22    25    27    2
    23    23    24   ar
    24     7     8   ar
    25     8     9   ar
    26    14    15   ar
    27    15    10   ar
    28     9     1   ar
    29     8     4   ar
    30    24    19   ar
@<TRIPOS>MOLECULE
*****
 27 30 0 0 0
SMALL
GASTEIGER

@<TRIPOS>ATOM
      1 C         139.1612  141.7025  162.1107 C.ar    1  UNL1        0.1016
      2 C         138.4510  140.8176  161.1296 C.ar    1  UNL1        0.0240
      3 C         138.1865  139.3810  161.4701 C.ar    1  UNL1        0.0404
      4 C         138.6322  138.8291  162.7918 C.ar    1  UNL1        0.1639
      5 N         138.5123  137.4638  163.4013 N.ar    1  UNL1       -0.2234
      6 C         139.1484  137.5048  164.7591 C.ar    1  UNL1        0.1197
      7 C         139.6615  138.8955  164.9888 C.ar    1  UNL1        0.1037
      8 N         139.3425  139.7140  163.7729 N.ar    1  UNL1       -0.2107
      9 N         139.6069  141.1506  163.4323 N.ar    1  UNL1       -0.1638
     10 C         140.2725  144.9353  160.0948 C.ar    1  UNL1        0.1808
     11 C         139.9547  146.0126  161.0891 C.ar    1  UNL1        0.0519
     12 C         139.3724  145.6532  162.4239 C.ar    1  UNL1        0.0045
     13 C         139.1079  144.2164  162.7644 C.ar    1  UNL1        0.0018
     14 C         139.4257  143.1392  161.7702 C.ar    1  UNL1        0.0237
     15 C         140.0080  143.4986  160.4354 C.ar    1  UNL1        0.0535
     16 C         139.9742  145.3457  157.5467 C.3     1  UNL1        0.3254
     17 S         140.8549  145.2947  158.7600 S.O     1  UNL1        0.0581
     18 O         142.3177  145.6032  158.6384 O.co2   1  UNL1       -0.6774
     19 C         140.3693  139.3823  166.2184 C.ar    1  UNL1        0.0236
     20 C         141.8683  139.3779  166.2722 C.ar    1  UNL1        0.0018
     21 C         142.5761  139.8647  167.5018 C.ar    1  UNL1        0.0045
     22 C         141.7850  140.3559  168.6777 C.ar    1  UNL1        0.0519
     23 C         140.2860  140.3603  168.6239 C.ar    1  UNL1        0.1808
     24 C         139.5781  139.8735  167.3943 C.ar    1  UNL1        0.0535
     25 S         139.4947  140.8515  169.7999 S.O     1  UNL1        0.0581
     26 C         139.7535  142.2189  170.3595 C.3     1  UNL1        0.3254
     27 O         138.4447  139.9753  170.4161 O.co2   1  UNL1       -0.6774
@<TRIPOS>UNITY_ATOM_ATTR
17 1
charge 1
18 1
charge -1
25 1
charge 1
27 1
charge -1
@<TRIPOS>BOND
     1    16    17    1
     2    17    18    2
     3    17    10    1
     4    10    11   ar
     5    11    12   ar
     6    12    13   ar
     7    13    14   ar
     8    14     1    1
     9     1     2   ar
    10     2     3   ar
    11     3     4   ar
    12     4     5   ar
    13     5     6   ar
    14     6     7   ar
    15     7    19    1
    16    19    20   ar
    17    20    21   ar
    18    21    22   ar
    19    22    23   ar
    20    23    25    1
    21    25    26    1
    22    25    27    2
    23    23    24   ar
    24     7     8   ar
    25     8     9   ar
    26    14    15   ar
    27    15    10   ar
    28     9     1   ar
    29     8     4   ar
    30    24    19   ar
@<TRIPOS>MOLECULE
*****
 27 30 0 0 0
SMALL
GASTEIGER

@<TRIPOS>ATOM
      1 C         140.2067  142.9903  165.9395 C.ar    1  UNL1        0.1016
      2 C         139.3525  144.2196  166.0348 C.ar    1  UNL1        0.0240
      3 C         138.4935  144.6276  164.8748 C.ar    1  UNL1        0.0404
      4 C         138.4888  143.8064  163.6196 C.ar    1  UNL1        0.1639
      5 N         137.7505  143.9595  162.3228 N.ar    1  UNL1       -0.2234
      6 C         138.1485  142.8248  161.4261 C.ar    1  UNL1        0.1197
      7 C         139.1327  141.9705  162.1687 C.ar    1  UNL1        0.1037
      8 N         139.3430  142.5772  163.5243 N.ar    1  UNL1       -0.2107
      9 N         140.2020  142.1691  164.6843 N.ar    1  UNL1       -0.1638
     10 C         141.2893  141.7231  169.5412 C.ar    1  UNL1        0.1808
     11 C         142.7837  141.7660  169.4196 C.ar    1  UNL1        0.0519
     12 C         143.4192  142.2170  168.1378 C.ar    1  UNL1        0.0045
     13 C         142.5602  142.6251  166.9778 C.ar    1  UNL1        0.0018
     14 C         141.0658  142.5822  167.0995 C.ar    1  UNL1        0.0237
     15 C         140.4303  142.1312  168.3813 C.ar    1  UNL1        0.0535
     16 C         140.0591  139.8986  170.9225 C.3     1  UNL1        0.3254
     17 S         140.6538  141.2721  170.8230 S.O     1  UNL1        0.0581
     18 O         140.6130  142.1946  172.0051 O.co2   1  UNL1       -0.6774
     19 C         139.7911  140.7277  161.6472 C.ar    1  UNL1        0.0236
     20 C         138.9533  139.5890  161.1457 C.ar    1  UNL1        0.0018
     21 C         139.6117  138.3462  160.6243 C.ar    1  UNL1        0.0045
     22 C         141.1079  138.2420  160.6043 C.ar    1  UNL1        0.0519
     23 C         141.9457  139.3806  161.1058 C.ar    1  UNL1        0.1808
     24 C         141.2873  140.6234  161.6273 C.ar    1  UNL1        0.0535
     25 S         143.4420  139.2764  161.0859 S.O     1  UNL1        0.0581
     26 C         144.2190  139.3921  162.3638 C.3     1  UNL1        0.3254
     27 O         144.1613  139.0565  159.7881 O.co2   1  UNL1       -0.6774
@<TRIPOS>UNITY_ATOM_ATTR
17 1
charge 1
18 1
charge -1
25 1
charge 1
27 1
charge -1
@<TRIPOS>BOND
     1    16    17    1
     2    17    18    2
     3    17    10    1
     4    10    11   ar
     5    11    12   ar
     6    12    13   ar
     7    13    14   ar
     8    14     1    1
     9     1     2   ar
    10     2     3   ar
    11     3     4   ar
    12     4     5   ar
    13     5     6   ar
    14     6     7   ar
    15     7    19    1
    16    19    20   ar
    17    20    21   ar
    18    21    22   ar
    19    22    23   ar
    20    23    25    1
    21    25    26    1
    22    25    27    2
    23    23    24   ar
    24     7     8   ar
    25     8     9   ar
    26    14    15   ar
    27    15    10   ar
    28     9     1   ar
    29     8     4   ar
    30    24    19   ar
@<TRIPOS>MOLECULE
*****
 27 30 0 0 0
SMALL
GASTEIGER

@<TRIPOS>ATOM
      1 C         143.2548  140.3950  165.6770 C.ar    1  UNL1        0.1016
      2 C         144.2620  139.4121  165.1582 C.ar    1  UNL1        0.0240
      3 C         144.6198  139.4031  163.7016 C.ar    1  UNL1        0.0404
      4 C         143.9703  140.3770  162.7637 C.ar    1  UNL1        0.1639
      5 N         144.1214  140.6031  161.2885 N.ar    1  UNL1       -0.2234
      6 C         143.2076  141.7258  160.8957 C.ar    1  UNL1        0.1197
      7 C         142.4917  142.1936  162.1280 C.ar    1  UNL1        0.1037
      8 N         142.9631  141.3600  163.2825 N.ar    1  UNL1       -0.2107
      9 N         142.6053  141.3690  164.7392 N.ar    1  UNL1       -0.1638
     10 C         142.2499  141.7115  169.2835 C.ar    1  UNL1        0.1808
     11 C         142.1814  140.4222  170.0471 C.ar    1  UNL1        0.0519
     12 C         142.4708  139.1238  169.3539 C.ar    1  UNL1        0.0045
     13 C         142.8286  139.1147  167.8972 C.ar    1  UNL1        0.0018
     14 C         142.8970  140.4040  167.1337 C.ar    1  UNL1        0.0237
     15 C         142.6076  141.7024  167.8269 C.ar    1  UNL1        0.0535
     16 C         140.6128  143.6527  169.8330 C.3     1  UNL1        0.3254
     17 S         141.9605  143.0099  169.9767 S.O     1  UNL1        0.0581
     18 O         143.0188  143.6655  170.8135 O.co2   1  UNL1       -0.6774
     19 C         141.4817  143.3006  162.1943 C.ar    1  UNL1        0.0236
     20 C         141.5022  144.3968  161.1706 C.ar    1  UNL1        0.0018
     21 C         140.4922  145.5038  161.2368 C.ar    1  UNL1        0.0045
     22 C         139.4617  145.5148  162.3267 C.ar    1  UNL1        0.0519
     23 C         139.4412  144.4186  163.3504 C.ar    1  UNL1        0.1808
     24 C         140.4512  143.3115  163.2842 C.ar    1  UNL1        0.0535
     25 S         138.4107  144.4294  164.4404 S.O     1  UNL1        0.0581
     26 C         137.2399  143.4941  164.3750 C.3     1  UNL1        0.3254
     27 O         138.5511  145.3756  165.5959 O.co2   1  UNL1       -0.6774
@<TRIPOS>UNITY_ATOM_ATTR
17 1
charge 1
18 1
charge -1
25 1
charge 1
27 1
charge -1
@<TRIPOS>BOND
     1    16    17    1
     2    17    18    2
     3    17    10    1
     4    10    11   ar
     5    11    12   ar
     6    12    13   ar
     7    13    14   ar
     8    14     1    1
     9     1     2   ar
    10     2     3   ar
    11     3     4   ar
    12     4     5   ar
    13     5     6   ar
    14     6     7   ar
    15     7    19    1
    16    19    20   ar
    17    20    21   ar
    18    21    22   ar
    19    22    23   ar
    20    23    25    1
    21    25    26    1
    22    25    27    2
    23    23    24   ar
    24     7     8   ar
    25     8     9   ar
    26    14    15   ar
    27    15    10   ar
    28     9     1   ar
    29     8     4   ar
    30    24    19   ar
@<TRIPOS>MOLECULE
*****
 27 30 0 0 0
SMALL
GASTEIGER

@<TRIPOS>ATOM
      1 C         140.1453  142.7971  165.5060 C.ar    1  UNL1        0.1016
      2 C         139.4348  144.1164  165.4388 C.ar    1  UNL1        0.0240
      3 C         139.4673  144.9221  164.1741 C.ar    1  UNL1        0.0404
      4 C         140.2103  144.4086  162.9765 C.ar    1  UNL1        0.1639
      5 N         140.4166  144.9768  161.6036 N.ar    1  UNL1       -0.2234
      6 C         141.2545  144.0085  160.8224 C.ar    1  UNL1        0.1197
      7 C         141.5662  142.8420  161.7124 C.ar    1  UNL1        0.1037
      8 N         140.9208  143.0892  163.0437 N.ar    1  UNL1       -0.2107
      9 N         140.8883  142.2835  164.3084 N.ar    1  UNL1       -0.1638
     10 C         140.6882  141.7362  169.2915 C.ar    1  UNL1        0.1808
     11 C         140.0478  140.3797  169.3004 C.ar    1  UNL1        0.0519
     12 C         139.4399  139.8291  168.0445 C.ar    1  UNL1        0.0045
     13 C         139.4724  140.6349  166.7797 C.ar    1  UNL1        0.0018
     14 C         140.1128  141.9913  166.7708 C.ar    1  UNL1        0.0237
     15 C         140.7207  142.5419  168.0267 C.ar    1  UNL1        0.0535
     16 C         142.6330  142.9653  170.4986 C.3     1  UNL1        0.3254
     17 S         141.2961  142.2868  170.5474 S.O     1  UNL1        0.0581
     18 O         140.5671  142.1590  171.8520 O.co2   1  UNL1       -0.6774
     19 C         142.3802  141.6393  161.3370 C.ar    1  UNL1        0.0236
     20 C         143.5155  141.1989  162.2129 C.ar    1  UNL1        0.0018
     21 C         144.3295  139.9963  161.8375 C.ar    1  UNL1        0.0045
     22 C         144.0084  139.2340  160.5863 C.ar    1  UNL1        0.0519
     23 C         142.8731  139.6744  159.7104 C.ar    1  UNL1        0.1808
     24 C         142.0591  140.8770  160.0857 C.ar    1  UNL1        0.0535
     25 S         142.5519  138.9120  158.4590 S.O     1  UNL1        0.0581
     26 C         141.1763  138.3495  158.2557 C.3     1  UNL1        0.3254
     27 O         143.6063  138.7123  157.4110 O.co2   1  UNL1       -0.6774
@<TRIPOS>UNITY_ATOM_ATTR
17 1
charge 1
18 1
charge -1
25 1
charge 1
27 1
charge -1
@<TRIPOS>BOND
     1    16    17    1
     2    17    18    2
     3    17    10    1
     4    10    11   ar
     5    11    12   ar
     6    12    13   ar
     7    13    14   ar
     8    14     1    1
     9     1     2   ar
    10     2     3   ar
    11     3     4   ar
    12     4     5   ar
    13     5     6   ar
    14     6     7   ar
    15     7    19    1
    16    19    20   ar
    17    20    21   ar
    18    21    22   ar
    19    22    23   ar
    20    23    25    1
    21    25    26    1
    22    25    27    2
    23    23    24   ar
    24     7     8   ar
    25     8     9   ar
    26    14    15   ar
    27    15    10   ar
    28     9     1   ar
    29     8     4   ar
    30    24    19   ar
