@<TRIPOS>MOLECULE
*****
 33 37 0 0 0
SMALL
GASTEIGER

@<TRIPOS>ATOM
      1 C         139.1068  139.6753  164.8411 C.3     1  UNL1        0.0749
      2 C         140.4941  140.0820  165.2412 C.3     1  UNL1        0.0444
      3 C         140.8623  140.1638  166.6930 C.ar    1  UNL1       -0.0101
      4 C         139.8432  139.8391  167.7446 C.ar    1  UNL1       -0.0091
      5 C         140.2115  139.9209  169.1965 C.ar    1  UNL1       -0.0032
      6 C         141.5987  140.3276  169.5966 C.ar    1  UNL1        0.0010
      7 C         142.6178  140.6524  168.5449 C.ar    1  UNL1        0.0142
      8 C         142.2496  140.5705  167.0931 C.ar    1  UNL1        0.0436
      9 C         138.4560  139.4324  167.3446 C.3     1  UNL1        0.0954
     10 N         138.0878  139.3506  165.8928 N.3     1  UNL1       -0.2934
     11 H         137.3048  139.9888  165.7512 H       1  UNL1        0.1236
     12 N         143.2687  140.8953  166.0414 N.pl3   1  UNL1       -0.3077
     13 C         143.6294  142.3244  165.7626 C.3     1  UNL1        0.0921
     14 C         144.6485  142.6492  164.7109 C.3     1  UNL1        0.0369
     15 C         145.3068  141.5448  163.9381 C.3     1  UNL1        0.0542
     16 N         146.3258  141.8696  162.8864 N.3     1  UNL1       -0.3221
     17 C         144.9460  140.1159  164.2169 C.3     1  UNL1        0.0369
     18 C         143.9270  139.7911  165.2686 C.3     1  UNL1        0.0921
     19 H         146.4467  142.8809  162.8309 H       1  UNL1        0.1188
     20 H         146.0083  141.5151  161.9843 H       1  UNL1        0.1188
     21 C         138.7386  139.5935  163.3893 C.3     1  UNL1        0.0886
     22 C         137.7710  140.7386  161.2673 C.3     1  UNL1        0.0899
     23 N         138.3769  140.8390  162.6358 N.3     1  UNL1       -0.2667
     24 C         138.6212  142.1852  163.2509 C.3     1  UNL1        0.0978
     25 C         137.5875  142.7985  164.1482 C.3     1  UNL1        0.0224
     26 C         137.8318  144.1446  164.7633 C.3     1  UNL1        0.0065
     27 C         139.1098  144.8774  164.4810 C.3     1  UNL1        0.0277
     28 C         140.1436  144.2641  163.5836 C.ar    1  UNL1       -0.0073
     29 C         141.4215  144.9969  163.3013 C.ar    1  UNL1       -0.0015
     30 C         142.4552  144.3836  162.4040 C.ar    1  UNL1        0.0203
     31 C         142.2110  143.0375  161.7889 C.ar    1  UNL1        0.0985
     32 N         140.9330  142.3047  162.0712 N.ar    1  UNL1       -0.2471
     33 C         139.8993  142.9180  162.9686 C.ar    1  UNL1        0.0695
@<TRIPOS>BOND
     1    22    23    1
     2    23    21    1
     3     1    21    1
     4     1     2    1
     5     2     3    1
     6     3     4   ar
     7     4     5   ar
     8     5     6   ar
     9     6     7   ar
    10     7     8   ar
    11     8    12    1
    12    12    13    1
    13    13    14    1
    14    14    15    1
    15    15    16    1
    16    15    17    1
    17    17    18    1
    18     4     9    1
    19     9    10    1
    20    24    23    1
    21    24    25    1
    22    25    26    1
    23    26    27    1
    24    27    28    1
    25    28    29   ar
    26    29    30   ar
    27    30    31   ar
    28    31    32   ar
    29    32    33   ar
    30    10     1    1
    31    33    24    1
    32     8     3   ar
    33    18    12    1
    34    33    28   ar
    35    16    19    1
    36    16    20    1
    37    10    11    1
@<TRIPOS>MOLECULE
*****
 33 37 0 0 0
SMALL
GASTEIGER

@<TRIPOS>ATOM
      1 C         140.2693  142.6981  164.1656 C.3     1  UNL1        0.0749
      2 C         140.4272  142.3311  165.6114 C.3     1  UNL1        0.0444
      3 C         139.6498  141.1826  166.1828 C.ar    1  UNL1       -0.0101
      4 C         138.7145  140.4011  165.3084 C.ar    1  UNL1       -0.0091
      5 C         137.9371  139.2525  165.8799 C.ar    1  UNL1       -0.0032
      6 C         138.0949  138.8855  167.3257 C.ar    1  UNL1        0.0010
      7 C         139.0302  139.6670  168.2001 C.ar    1  UNL1        0.0142
      8 C         139.8076  140.8155  167.6287 C.ar    1  UNL1        0.0436
      9 C         138.5566  140.7681  163.8626 C.3     1  UNL1        0.0954
     10 N         139.3340  141.9166  163.2912 N.3     1  UNL1       -0.2934
     11 H         138.6520  142.5796  162.9231 H       1  UNL1        0.1236
     12 N         140.7428  141.5970  168.5031 N.pl3   1  UNL1       -0.3077
     13 C         140.2619  142.8380  169.1949 C.3     1  UNL1        0.0921
     14 C         141.1972  143.6195  170.0693 C.3     1  UNL1        0.0369
     15 C         142.6133  143.1600  170.2519 C.3     1  UNL1        0.0542
     16 N         143.5486  143.9415  171.1263 N.3     1  UNL1       -0.3221
     17 C         143.0942  141.9190  169.5601 C.3     1  UNL1        0.0369
     18 C         142.1590  141.1375  168.6857 C.3     1  UNL1        0.0921
     19 H         143.0584  144.7480  171.5129 H       1  UNL1        0.1188
     20 H         144.3444  144.2601  170.5735 H       1  UNL1        0.1188
     21 C         141.0467  143.8466  163.5942 C.3     1  UNL1        0.0886
     22 C         142.2678  144.3356  161.3537 C.3     1  UNL1        0.0899
     23 N         142.1838  143.5872  162.6510 N.3     1  UNL1       -0.2667
     24 C         143.2369  142.5794  163.0049 C.3     1  UNL1        0.0978
     25 C         144.4513  143.0031  163.7766 C.3     1  UNL1        0.0224
     26 C         145.5044  141.9953  164.1306 C.3     1  UNL1        0.0065
     27 C         145.3431  140.5637  163.7129 C.3     1  UNL1        0.0277
     28 C         144.1286  140.1399  162.9412 C.ar    1  UNL1       -0.0073
     29 C         143.9672  138.7083  162.5235 C.ar    1  UNL1       -0.0015
     30 C         142.7528  138.2846  161.7519 C.ar    1  UNL1        0.0203
     31 C         141.6997  139.2924  161.3979 C.ar    1  UNL1        0.0985
     32 N         141.8610  140.7240  161.8156 N.ar    1  UNL1       -0.2471
     33 C         143.0755  141.1477  162.5872 C.ar    1  UNL1        0.0695
@<TRIPOS>BOND
     1    22    23    1
     2    23    21    1
     3     1    21    1
     4     1     2    1
     5     2     3    1
     6     3     4   ar
     7     4     5   ar
     8     5     6   ar
     9     6     7   ar
    10     7     8   ar
    11     8    12    1
    12    12    13    1
    13    13    14    1
    14    14    15    1
    15    15    16    1
    16    15    17    1
    17    17    18    1
    18     4     9    1
    19     9    10    1
    20    24    23    1
    21    24    25    1
    22    25    26    1
    23    26    27    1
    24    27    28    1
    25    28    29   ar
    26    29    30   ar
    27    30    31   ar
    28    31    32   ar
    29    32    33   ar
    30    10     1    1
    31    33    24    1
    32     8     3   ar
    33    18    12    1
    34    33    28   ar
    35    16    19    1
    36    16    20    1
    37    10    11    1
@<TRIPOS>MOLECULE
*****
 33 37 0 0 0
SMALL
GASTEIGER

@<TRIPOS>ATOM
      1 C         142.1956  139.7609  164.4130 C.3     1  UNL1        0.0749
      2 C         141.7448  140.1700  165.7839 C.3     1  UNL1        0.0444
      3 C         140.4266  139.6894  166.3143 C.ar    1  UNL1       -0.0101
      4 C         139.5593  138.7998  165.4739 C.ar    1  UNL1       -0.0091
      5 C         138.2410  138.3192  166.0045 C.ar    1  UNL1       -0.0032
      6 C         137.7902  138.7283  167.3753 C.ar    1  UNL1        0.0010
      7 C         138.6575  139.6180  168.2157 C.ar    1  UNL1        0.0142
      8 C         139.9757  140.0985  167.6853 C.ar    1  UNL1        0.0436
      9 C         140.0101  138.3907  164.1031 C.3     1  UNL1        0.0954
     10 N         141.3283  138.8712  163.5726 N.3     1  UNL1       -0.2934
     11 H         141.1310  139.3808  162.7113 H       1  UNL1        0.1236
     12 N         140.8430  140.9881  168.5257 N.pl3   1  UNL1       -0.3077
     13 C         142.1122  140.4536  169.1203 C.3     1  UNL1        0.0921
     14 C         142.9795  141.3433  169.9607 C.3     1  UNL1        0.0369
     15 C         142.5776  142.7674  170.2065 C.3     1  UNL1        0.0542
     16 N         143.4449  143.6571  171.0469 N.3     1  UNL1       -0.3221
     17 C         141.3084  143.3019  169.6119 C.3     1  UNL1        0.0369
     18 C         140.4411  142.4122  168.7715 C.3     1  UNL1        0.0921
     19 H         144.2600  143.1338  171.3665 H       1  UNL1        0.1188
     20 H         142.9142  143.9857  171.8536 H       1  UNL1        0.1188
     21 C         143.5139  140.2414  163.8825 C.3     1  UNL1        0.0886
     22 C         144.0727  140.9803  161.4552 C.3     1  UNL1        0.0899
     23 N         143.5542  141.3044  162.8250 N.3     1  UNL1       -0.2667
     24 C         143.0761  142.6915  163.1371 C.3     1  UNL1        0.0978
     25 C         144.0468  143.7287  163.6188 C.3     1  UNL1        0.0224
     26 C         143.5687  145.1157  163.9309 C.3     1  UNL1        0.0065
     27 C         142.1200  145.4656  163.7614 C.3     1  UNL1        0.0277
     28 C         141.1493  144.4284  163.2797 C.ar    1  UNL1       -0.0073
     29 C         139.7005  144.7783  163.1102 C.ar    1  UNL1       -0.0015
     30 C         138.7299  143.7411  162.6286 C.ar    1  UNL1        0.0203
     31 C         139.2080  142.3540  162.3164 C.ar    1  UNL1        0.0985
     32 N         140.6567  142.0041  162.4859 N.ar    1  UNL1       -0.2471
     33 C         141.6273  143.0413  162.9676 C.ar    1  UNL1        0.0695
@<TRIPOS>BOND
     1    22    23    1
     2    23    21    1
     3     1    21    1
     4     1     2    1
     5     2     3    1
     6     3     4   ar
     7     4     5   ar
     8     5     6   ar
     9     6     7   ar
    10     7     8   ar
    11     8    12    1
    12    12    13    1
    13    13    14    1
    14    14    15    1
    15    15    16    1
    16    15    17    1
    17    17    18    1
    18     4     9    1
    19     9    10    1
    20    24    23    1
    21    24    25    1
    22    25    26    1
    23    26    27    1
    24    27    28    1
    25    28    29   ar
    26    29    30   ar
    27    30    31   ar
    28    31    32   ar
    29    32    33   ar
    30    10     1    1
    31    33    24    1
    32     8     3   ar
    33    18    12    1
    34    33    28   ar
    35    16    19    1
    36    16    20    1
    37    10    11    1
@<TRIPOS>MOLECULE
*****
 33 37 0 0 0
SMALL
GASTEIGER

@<TRIPOS>ATOM
      1 C         139.2351  143.5749  164.4092 C.3     1  UNL1        0.0749
      2 C         139.7311  142.8983  165.6527 C.3     1  UNL1        0.0444
      3 C         139.3161  141.4892  165.9562 C.ar    1  UNL1       -0.0101
      4 C         138.4051  140.7567  165.0162 C.ar    1  UNL1       -0.0091
      5 C         137.9901  139.3475  165.3198 C.ar    1  UNL1       -0.0032
      6 C         138.4861  138.6709  166.5632 C.ar    1  UNL1        0.0010
      7 C         139.3970  139.4035  167.5032 C.ar    1  UNL1        0.0142
      8 C         139.8120  140.8126  167.1997 C.ar    1  UNL1        0.0436
      9 C         137.9092  141.4332  163.7728 C.3     1  UNL1        0.0954
     10 N         138.3242  142.8423  163.4693 N.3     1  UNL1       -0.2934
     11 H         137.4683  143.3928  163.3998 H       1  UNL1        0.1236
     12 N         140.7230  141.5451  168.1397 N.pl3   1  UNL1       -0.3077
     13 C         140.1477  142.3434  169.2719 C.3     1  UNL1        0.0921
     14 C         141.0586  143.0760  170.2119 C.3     1  UNL1        0.0369
     15 C         142.5449  143.0102  170.0196 C.3     1  UNL1        0.0542
     16 N         143.4558  143.7428  170.9596 N.3     1  UNL1       -0.3221
     17 C         143.1201  142.2120  168.8875 C.3     1  UNL1        0.0369
     18 C         142.2091  141.4794  167.9475 C.3     1  UNL1        0.0921
     19 H         142.8993  144.2286  171.6629 H       1  UNL1        0.1188
     20 H         144.0100  144.4208  170.4367 H       1  UNL1        0.1188
     21 C         139.6501  144.9840  164.1057 C.3     1  UNL1        0.0886
     22 C         139.8785  146.2885  161.8704 C.3     1  UNL1        0.0899
     23 N         140.4138  145.2872  162.8508 N.3     1  UNL1       -0.2667
     24 C         141.7127  144.5891  162.5761 C.3     1  UNL1        0.0978
     25 C         142.9808  145.0916  163.2001 C.3     1  UNL1        0.0224
     26 C         144.2797  144.3934  162.9254 C.3     1  UNL1        0.0065
     27 C         144.3106  143.1929  162.0268 C.3     1  UNL1        0.0277
     28 C         143.0424  142.6903  161.4027 C.ar    1  UNL1       -0.0073
     29 C         143.0733  141.4897  160.5041 C.ar    1  UNL1       -0.0015
     30 C         141.8052  140.9873  159.8801 C.ar    1  UNL1        0.0203
     31 C         140.5062  141.6854  160.1548 C.ar    1  UNL1        0.0985
     32 N         140.4754  142.8860  161.0534 N.ar    1  UNL1       -0.2471
     33 C         141.7435  143.3884  161.6774 C.ar    1  UNL1        0.0695
@<TRIPOS>BOND
     1    22    23    1
     2    23    21    1
     3     1    21    1
     4     1     2    1
     5     2     3    1
     6     3     4   ar
     7     4     5   ar
     8     5     6   ar
     9     6     7   ar
    10     7     8   ar
    11     8    12    1
    12    12    13    1
    13    13    14    1
    14    14    15    1
    15    15    16    1
    16    15    17    1
    17    17    18    1
    18     4     9    1
    19     9    10    1
    20    24    23    1
    21    24    25    1
    22    25    26    1
    23    26    27    1
    24    27    28    1
    25    28    29   ar
    26    29    30   ar
    27    30    31   ar
    28    31    32   ar
    29    32    33   ar
    30    10     1    1
    31    33    24    1
    32     8     3   ar
    33    18    12    1
    34    33    28   ar
    35    16    19    1
    36    16    20    1
    37    10    11    1
@<TRIPOS>MOLECULE
*****
 33 37 0 0 0
SMALL
GASTEIGER

@<TRIPOS>ATOM
      1 C         142.3684  143.0314  164.2461 C.3     1  UNL1        0.0749
      2 C         142.1125  142.3945  165.5798 C.3     1  UNL1        0.0444
      3 C         142.6592  141.0295  165.8762 C.ar    1  UNL1       -0.0101
      4 C         143.4618  140.3015  164.8389 C.ar    1  UNL1       -0.0091
      5 C         144.0085  138.9365  165.1354 C.ar    1  UNL1       -0.0032
      6 C         143.7526  138.2995  166.4691 C.ar    1  UNL1        0.0010
      7 C         142.9501  139.0275  167.5064 C.ar    1  UNL1        0.0142
      8 C         142.4033  140.3925  167.2099 C.ar    1  UNL1        0.0436
      9 C         143.7176  140.9384  163.5053 C.3     1  UNL1        0.0954
     10 N         143.1709  142.3034  163.2088 N.3     1  UNL1       -0.2934
     11 H         142.5740  142.2094  162.3871 H       1  UNL1        0.1236
     12 N         141.6008  141.1205  168.2472 N.pl3   1  UNL1       -0.3077
     13 C         142.1368  142.3788  168.8634 C.3     1  UNL1        0.0921
     14 C         141.3342  143.1068  169.9006 C.3     1  UNL1        0.0369
     15 C         139.9957  142.5765  170.3217 C.3     1  UNL1        0.0542
     16 N         139.1931  143.3046  171.3589 N.3     1  UNL1       -0.3221
     17 C         139.4598  141.3184  169.7055 C.3     1  UNL1        0.0369
     18 C         140.2623  140.5903  168.6683 C.3     1  UNL1        0.0921
     19 H         139.7050  144.1316  171.6663 H       1  UNL1        0.1188
     20 H         139.0304  142.6896  172.1563 H       1  UNL1        0.1188
     21 C         141.8216  144.3965  163.9496 C.3     1  UNL1        0.0886
     22 C         140.4354  145.7563  162.2235 C.3     1  UNL1        0.0899
     23 N         140.5993  144.5450  163.0931 N.3     1  UNL1       -0.2667
     24 C         139.5407  143.4824  163.1060 C.3     1  UNL1        0.0978
     25 C         138.4355  143.5370  164.1187 C.3     1  UNL1        0.0224
     26 C         137.3769  142.4744  164.1317 C.3     1  UNL1        0.0065
     27 C         137.4235  141.3571  163.1320 C.3     1  UNL1        0.0277
     28 C         138.5288  141.3023  162.1193 C.ar    1  UNL1       -0.0073
     29 C         138.5754  140.1850  161.1196 C.ar    1  UNL1       -0.0015
     30 C         139.6806  140.1304  160.1070 C.ar    1  UNL1        0.0203
     31 C         140.7391  141.1930  160.0940 C.ar    1  UNL1        0.0985
     32 N         140.6925  142.3104  161.0936 N.ar    1  UNL1       -0.2471
     33 C         139.5873  142.3650  162.1063 C.ar    1  UNL1        0.0695
@<TRIPOS>BOND
     1    22    23    1
     2    23    21    1
     3     1    21    1
     4     1     2    1
     5     2     3    1
     6     3     4   ar
     7     4     5   ar
     8     5     6   ar
     9     6     7   ar
    10     7     8   ar
    11     8    12    1
    12    12    13    1
    13    13    14    1
    14    14    15    1
    15    15    16    1
    16    15    17    1
    17    17    18    1
    18     4     9    1
    19     9    10    1
    20    24    23    1
    21    24    25    1
    22    25    26    1
    23    26    27    1
    24    27    28    1
    25    28    29   ar
    26    29    30   ar
    27    30    31   ar
    28    31    32   ar
    29    32    33   ar
    30    10     1    1
    31    33    24    1
    32     8     3   ar
    33    18    12    1
    34    33    28   ar
    35    16    19    1
    36    16    20    1
    37    10    11    1
@<TRIPOS>MOLECULE
*****
 33 37 0 0 0
SMALL
GASTEIGER

@<TRIPOS>ATOM
      1 C         139.5814  140.1365  166.1823 C.3     1  UNL1        0.0749
      2 C         139.4501  140.8951  164.8950 C.3     1  UNL1        0.0444
      3 C         138.9997  140.1887  163.6508 C.ar    1  UNL1       -0.0101
      4 C         138.6806  138.7237  163.6939 C.ar    1  UNL1       -0.0091
      5 C         138.2302  138.0173  162.4496 C.ar    1  UNL1       -0.0032
      6 C         138.0989  138.7759  161.1623 C.ar    1  UNL1        0.0010
      7 C         138.4180  140.2409  161.1192 C.ar    1  UNL1        0.0142
      8 C         138.8684  140.9473  162.3634 C.ar    1  UNL1        0.0436
      9 C         138.8119  137.9651  164.9812 C.3     1  UNL1        0.0954
     10 N         139.2623  138.6715  166.2254 N.3     1  UNL1       -0.2934
     11 H         140.1059  138.1957  166.5452 H       1  UNL1        0.1236
     12 N         139.1875  142.4124  162.3203 N.pl3   1  UNL1       -0.3077
     13 C         138.1424  143.4191  162.7006 C.3     1  UNL1        0.0921
     14 C         138.4615  144.8841  162.6575 C.3     1  UNL1        0.0369
     15 C         139.8257  145.3424  162.2341 C.3     1  UNL1        0.0542
     16 N         140.1448  146.8075  162.1910 N.3     1  UNL1       -0.3221
     17 C         140.8706  144.3358  161.8538 C.3     1  UNL1        0.0369
     18 C         140.5515  142.8707  161.8969 C.3     1  UNL1        0.0921
     19 H         139.3254  147.3425  162.4787 H       1  UNL1        0.1188
     20 H         140.4063  147.0707  161.2409 H       1  UNL1        0.1188
     21 C         140.0318  140.8429  167.4266 C.3     1  UNL1        0.0886
     22 C         141.9428  141.6104  169.0106 C.3     1  UNL1        0.0899
     23 N         141.4946  140.9494  167.7409 N.3     1  UNL1       -0.2667
     24 C         142.5092  140.3948  166.7854 C.3     1  UNL1        0.0978
     25 C         142.9234  138.9565  166.8826 C.3     1  UNL1        0.0224
     26 C         143.9381  138.4019  165.9271 C.3     1  UNL1        0.0065
     27 C         144.5385  139.2857  164.8744 C.3     1  UNL1        0.0277
     28 C         144.1243  140.7242  164.7771 C.ar    1  UNL1       -0.0073
     29 C         144.7248  141.6080  163.7244 C.ar    1  UNL1       -0.0015
     30 C         144.3106  143.0464  163.6271 C.ar    1  UNL1        0.0203
     31 C         143.2959  143.6009  164.5826 C.ar    1  UNL1        0.0985
     32 N         142.6955  142.7171  165.6354 N.ar    1  UNL1       -0.2471
     33 C         143.1097  141.2787  165.7326 C.ar    1  UNL1        0.0695
@<TRIPOS>BOND
     1    22    23    1
     2    23    21    1
     3     1    21    1
     4     1     2    1
     5     2     3    1
     6     3     4   ar
     7     4     5   ar
     8     5     6   ar
     9     6     7   ar
    10     7     8   ar
    11     8    12    1
    12    12    13    1
    13    13    14    1
    14    14    15    1
    15    15    16    1
    16    15    17    1
    17    17    18    1
    18     4     9    1
    19     9    10    1
    20    24    23    1
    21    24    25    1
    22    25    26    1
    23    26    27    1
    24    27    28    1
    25    28    29   ar
    26    29    30   ar
    27    30    31   ar
    28    31    32   ar
    29    32    33   ar
    30    10     1    1
    31    33    24    1
    32     8     3   ar
    33    18    12    1
    34    33    28   ar
    35    16    19    1
    36    16    20    1
    37    10    11    1
@<TRIPOS>MOLECULE
*****
 33 37 0 0 0
SMALL
GASTEIGER

@<TRIPOS>ATOM
      1 C         143.0535  142.2706  166.1067 C.3     1  UNL1        0.0749
      2 C         141.8117  141.4352  166.0069 C.3     1  UNL1        0.0444
      3 C         141.0581  141.0605  167.2485 C.ar    1  UNL1       -0.0101
      4 C         141.5463  141.5211  168.5899 C.ar    1  UNL1       -0.0091
      5 C         140.7926  141.1463  169.8316 C.ar    1  UNL1       -0.0032
      6 C         139.5508  140.3110  169.7318 C.ar    1  UNL1        0.0010
      7 C         139.0626  139.8503  168.3903 C.ar    1  UNL1        0.0142
      8 C         139.8162  140.2250  167.1487 C.ar    1  UNL1        0.0436
      9 C         142.7881  142.3565  168.6898 C.3     1  UNL1        0.0954
     10 N         143.5417  142.7312  167.4482 N.3     1  UNL1       -0.2934
     11 H         144.4885  142.3681  167.5575 H       1  UNL1        0.1236
     12 N         139.3280  139.7644  165.8073 N.pl3   1  UNL1       -0.3077
     13 C         139.7192  138.4114  165.2909 C.3     1  UNL1        0.0921
     14 C         139.2310  137.9508  163.9494 C.3     1  UNL1        0.0369
     15 C         138.3516  138.8431  163.1244 C.3     1  UNL1        0.0542
     16 N         137.8634  138.3824  161.7830 N.3     1  UNL1       -0.3221
     17 C         137.9604  140.1959  163.6409 C.3     1  UNL1        0.0369
     18 C         138.4487  140.6566  164.9823 C.3     1  UNL1        0.0921
     19 H         138.2230  137.4470  161.5932 H       1  UNL1        0.1188
     20 H         138.1915  139.0255  161.0625 H       1  UNL1        0.1188
     21 C         143.8071  142.6454  164.8651 C.3     1  UNL1        0.0886
     22 C         143.7603  145.0936  163.9967 C.3     1  UNL1        0.0899
     23 N         143.2522  143.6836  163.9355 N.3     1  UNL1       -0.2667
     24 C         142.1890  143.3118  162.9448 C.3     1  UNL1        0.0978
     25 C         142.5621  142.6123  161.6714 C.3     1  UNL1        0.0224
     26 C         141.4990  142.2406  160.6807 C.3     1  UNL1        0.0065
     27 C         140.0628  142.5683  160.9633 C.3     1  UNL1        0.0277
     28 C         139.6897  143.2678  162.2367 C.ar    1  UNL1       -0.0073
     29 C         138.2535  143.5956  162.5194 C.ar    1  UNL1       -0.0015
     30 C         137.8804  144.2950  163.7927 C.ar    1  UNL1        0.0203
     31 C         138.9436  144.6668  164.7835 C.ar    1  UNL1        0.0985
     32 N         140.3797  144.3391  164.5008 N.ar    1  UNL1       -0.2471
     33 C         140.7528  143.6396  163.2275 C.ar    1  UNL1        0.0695
@<TRIPOS>BOND
     1    22    23    1
     2    23    21    1
     3     1    21    1
     4     1     2    1
     5     2     3    1
     6     3     4   ar
     7     4     5   ar
     8     5     6   ar
     9     6     7   ar
    10     7     8   ar
    11     8    12    1
    12    12    13    1
    13    13    14    1
    14    14    15    1
    15    15    16    1
    16    15    17    1
    17    17    18    1
    18     4     9    1
    19     9    10    1
    20    24    23    1
    21    24    25    1
    22    25    26    1
    23    26    27    1
    24    27    28    1
    25    28    29   ar
    26    29    30   ar
    27    30    31   ar
    28    31    32   ar
    29    32    33   ar
    30    10     1    1
    31    33    24    1
    32     8     3   ar
    33    18    12    1
    34    33    28   ar
    35    16    19    1
    36    16    20    1
    37    10    11    1
@<TRIPOS>MOLECULE
*****
 33 37 0 0 0
SMALL
GASTEIGER

@<TRIPOS>ATOM
      1 C         141.3551  139.2319  161.7225 C.3     1  UNL1        0.0749
      2 C         141.6744  140.6810  161.9414 C.3     1  UNL1        0.0444
      3 C         142.9836  141.0756  162.5579 C.ar    1  UNL1       -0.0101
      4 C         143.9735  140.0211  162.9555 C.ar    1  UNL1       -0.0091
      5 C         145.2828  140.4158  163.5720 C.ar    1  UNL1       -0.0032
      6 C         145.6022  141.8649  163.7909 C.ar    1  UNL1        0.0010
      7 C         144.6123  142.9194  163.3934 C.ar    1  UNL1        0.0142
      8 C         143.3030  142.5248  162.7769 C.ar    1  UNL1        0.0436
      9 C         143.6542  138.5720  162.7366 C.3     1  UNL1        0.0954
     10 N         142.3449  138.1774  162.1201 N.3     1  UNL1       -0.2934
     11 H         141.8746  137.5701  162.7912 H       1  UNL1        0.1236
     12 N         142.3131  143.5794  162.3793 N.pl3   1  UNL1       -0.3077
     13 C         142.0508  143.8527  160.9279 C.3     1  UNL1        0.0921
     14 C         141.0609  144.9072  160.5303 C.3     1  UNL1        0.0369
     15 C         140.3334  145.6884  161.5841 C.3     1  UNL1        0.0542
     16 N         139.3435  146.7429  161.1865 N.3     1  UNL1       -0.3221
     17 C         140.5957  145.4151  163.0354 C.3     1  UNL1        0.0369
     18 C         141.5856  144.3605  163.4330 C.3     1  UNL1        0.0921
     19 H         139.2913  146.7940  160.1691 H       1  UNL1        0.1188
     20 H         139.6407  147.6454  161.5574 H       1  UNL1        0.1188
     21 C         140.0457  138.8372  161.1060 C.3     1  UNL1        0.0886
     22 C         137.5774  138.0959  161.4347 C.3     1  UNL1        0.0899
     23 N         138.8047  138.7896  161.9471 N.3     1  UNL1       -0.2667
     24 C         138.7909  139.4358  163.3007 C.3     1  UNL1        0.0978
     25 C         139.1288  138.6300  164.5199 C.3     1  UNL1        0.0224
     26 C         139.1150  139.2762  165.8736 C.3     1  UNL1        0.0065
     27 C         138.7633  140.7281  166.0080 C.3     1  UNL1        0.0277
     28 C         138.4254  141.5340  164.7887 C.ar    1  UNL1       -0.0073
     29 C         138.0737  142.9859  164.9232 C.ar    1  UNL1       -0.0015
     30 C         137.7358  143.7917  163.7040 C.ar    1  UNL1        0.0203
     31 C         137.7496  143.1456  162.3504 C.ar    1  UNL1        0.0985
     32 N         138.1013  141.6936  162.2159 N.ar    1  UNL1       -0.2471
     33 C         138.4392  140.8878  163.4351 C.ar    1  UNL1        0.0695
@<TRIPOS>BOND
     1    22    23    1
     2    23    21    1
     3     1    21    1
     4     1     2    1
     5     2     3    1
     6     3     4   ar
     7     4     5   ar
     8     5     6   ar
     9     6     7   ar
    10     7     8   ar
    11     8    12    1
    12    12    13    1
    13    13    14    1
    14    14    15    1
    15    15    16    1
    16    15    17    1
    17    17    18    1
    18     4     9    1
    19     9    10    1
    20    24    23    1
    21    24    25    1
    22    25    26    1
    23    26    27    1
    24    27    28    1
    25    28    29   ar
    26    29    30   ar
    27    30    31   ar
    28    31    32   ar
    29    32    33   ar
    30    10     1    1
    31    33    24    1
    32     8     3   ar
    33    18    12    1
    34    33    28   ar
    35    16    19    1
    36    16    20    1
    37    10    11    1
@<TRIPOS>MOLECULE
*****
 33 37 0 0 0
SMALL
GASTEIGER

@<TRIPOS>ATOM
      1 C         141.1778  140.3368  166.0615 C.3     1  UNL1        0.0749
      2 C         141.5509  141.3577  165.0277 C.3     1  UNL1        0.0444
      3 C         142.9305  141.3591  164.4389 C.ar    1  UNL1       -0.0101
      4 C         143.9369  140.3397  164.8838 C.ar    1  UNL1       -0.0091
      5 C         145.3166  140.3412  164.2949 C.ar    1  UNL1       -0.0032
      6 C         145.6897  141.3621  163.2612 C.ar    1  UNL1        0.0010
      7 C         144.6832  142.3815  162.8163 C.ar    1  UNL1        0.0142
      8 C         143.3037  142.3800  163.4051 C.ar    1  UNL1        0.0436
      9 C         143.5638  139.3189  165.9175 C.3     1  UNL1        0.0954
     10 N         142.1842  139.3175  166.5064 N.3     1  UNL1       -0.2934
     11 H         142.2940  139.4323  167.5139 H       1  UNL1        0.1236
     12 N         142.2972  143.3994  162.9602 N.pl3   1  UNL1       -0.3077
     13 C         141.7113  143.3227  161.5815 C.3     1  UNL1        0.0921
     14 C         140.7048  144.3421  161.1366 C.3     1  UNL1        0.0369
     15 C         140.2844  145.4382  162.0704 C.3     1  UNL1        0.0542
     16 N         139.2779  146.4576  161.6256 N.3     1  UNL1       -0.3221
     17 C         140.8703  145.5148  163.4491 C.3     1  UNL1        0.0369
     18 C         141.8768  144.4954  163.8940 C.3     1  UNL1        0.0921
     19 H         138.9886  146.2546  160.6688 H       1  UNL1        0.1188
     20 H         139.6957  147.3873  161.6644 H       1  UNL1        0.1188
     21 C         139.7982  140.3353  166.6503 C.3     1  UNL1        0.0886
     22 C         137.7730  138.7435  166.9892 C.3     1  UNL1        0.0899
     23 N         138.7393  139.4404  166.0778 N.3     1  UNL1       -0.2667
     24 C         138.6467  139.2424  164.5938 C.3     1  UNL1        0.0978
     25 C         138.8632  137.8803  164.0040 C.3     1  UNL1        0.0224
     26 C         138.7706  137.6822  162.5200 C.3     1  UNL1        0.0065
     27 C         138.4614  138.8462  161.6258 C.3     1  UNL1        0.0277
     28 C         138.2449  140.2083  162.2156 C.ar    1  UNL1       -0.0073
     29 C         137.9357  141.3723  161.3215 C.ar    1  UNL1       -0.0015
     30 C         137.7192  142.7343  161.9113 C.ar    1  UNL1        0.0203
     31 C         137.8118  142.9324  163.3953 C.ar    1  UNL1        0.0985
     32 N         138.1210  141.7685  164.2894 N.ar    1  UNL1       -0.2471
     33 C         138.3375  140.4064  163.6996 C.ar    1  UNL1        0.0695
@<TRIPOS>BOND
     1    22    23    1
     2    23    21    1
     3     1    21    1
     4     1     2    1
     5     2     3    1
     6     3     4   ar
     7     4     5   ar
     8     5     6   ar
     9     6     7   ar
    10     7     8   ar
    11     8    12    1
    12    12    13    1
    13    13    14    1
    14    14    15    1
    15    15    16    1
    16    15    17    1
    17    17    18    1
    18     4     9    1
    19     9    10    1
    20    24    23    1
    21    24    25    1
    22    25    26    1
    23    26    27    1
    24    27    28    1
    25    28    29   ar
    26    29    30   ar
    27    30    31   ar
    28    31    32   ar
    29    32    33   ar
    30    10     1    1
    31    33    24    1
    32     8     3   ar
    33    18    12    1
    34    33    28   ar
    35    16    19    1
    36    16    20    1
    37    10    11    1
