@<TRIPOS>MOLECULE
*****
 45 50 0 0 0
SMALL
GASTEIGER

@<TRIPOS>ATOM
      1 C         139.6470  141.1655  164.3551 C.ar    1  UNL1        0.1534
      2 N         140.6923  140.6776  163.3963 N.ar    1  UNL1       -0.2280
      3 C         140.7828  141.6627  162.2687 C.ar    1  UNL1        0.1014
      4 C         139.7935  142.7594  162.5306 C.ar    1  UNL1        0.1141
      5 C         139.4411  143.9980  161.7616 C.ar    1  UNL1        0.1432
      6 N         140.1431  144.3053  160.4721 N.pl3   1  UNL1       -0.3414
      7 N         138.3868  144.9294  162.2821 N.ar    1  UNL1       -0.2265
      8 C         137.6849  144.6221  163.5716 C.ar    1  UNL1        0.1193
      9 C         138.0372  143.3835  164.3406 C.ar    1  UNL1        0.1021
     10 N         139.0915  142.4521  163.8202 N.ar    1  UNL1       -0.2865
     11 H         140.8351  143.6940  160.1305 H       1  UNL1        0.1438
     12 H         139.9118  145.1183  159.9673 H       1  UNL1        0.1438
     13 C         140.0435  140.6246  169.5078 C.2     1  UNL1        0.2297
     14 O         139.6269  139.9452  170.7785 O.2     1  UNL1       -0.2747
     15 N         139.4286  140.2156  168.2022 N.am    1  UNL1       -0.2739
     16 C         138.3970  139.1272  168.1674 C.3     1  UNL1        0.1255
     17 C         137.7821  138.7182  166.8618 C.3     1  UNL1        0.1641
     18 O         138.1987  139.3976  165.5910 O.3     1  UNL1       -0.3451
     19 C         139.2304  140.4861  165.6259 C.3     1  UNL1        0.1913
     20 C         139.8452  140.8950  166.9314 C.3     1  UNL1        0.1307
     21 C         142.1268  140.7296  169.1220 C.3     1  UNL1        0.0142
     22 C         141.0751  141.7129  169.5427 C.3     1  UNL1        0.1234
     23 C         140.0235  142.6963  169.9634 C.3     1  UNL1        0.1531
     24 O         141.0551  143.7846  169.9983 O.3     1  UNL1       -0.3526
     25 C         142.1068  142.8013  169.5776 C.3     1  UNL1        0.1531
     26 C         141.7013  141.5678  161.0866 C.ar    1  UNL1        0.0192
     27 C         141.2690  140.8225  159.8587 C.ar    1  UNL1        0.0017
     28 C         142.1875  140.7276  158.6766 C.ar    1  UNL1        0.0046
     29 C         143.5384  141.3779  158.7224 C.ar    1  UNL1        0.0537
     30 C         143.9707  142.1232  159.9503 C.ar    1  UNL1        0.0046
     31 C         143.0522  142.2181  161.1323 C.ar    1  UNL1        0.0017
     32 C         144.4569  141.2830  157.5404 C.2     1  UNL1        0.2505
     33 O         144.8564  139.9392  157.0069 O.2     1  UNL1       -0.2698
     34 N         144.9760  142.5320  156.8918 N.am    1  UNL1       -0.2658
     35 H         144.7138  143.4140  157.2420 H       1  UNL1        0.1566
     36 C         145.8946  142.4372  155.7098 C.ar    1  UNL1        0.1343
     37 C         147.3547  142.1614  155.9147 C.ar    1  UNL1        0.0383
     38 C         148.2732  142.0666  154.7325 C.ar    1  UNL1        0.0757
     39 C         147.7316  142.2476  153.3455 C.ar    1  UNL1        0.0246
     40 C         146.2715  142.5233  153.1406 C.ar    1  UNL1        0.1003
     41 N         145.3530  142.6181  154.3227 N.ar    1  UNL1       -0.2290
     42 C         149.7333  141.7909  154.9375 C.3     1  UNL1        0.4187
     43 F         151.1935  141.5151  155.1425 F       1  UNL1       -0.1659
     44 F         149.5879  142.1055  156.3969 F       1  UNL1       -0.1659
     45 F         149.8788  141.4762  153.4781 F       1  UNL1       -0.1659
@<TRIPOS>BOND
     1    21    22    1
     2    22    13    1
     3    13    14    2
     4    13    15   am
     5    15    16    1
     6    16    17    1
     7    17    18    1
     8    18    19    1
     9    19     1    1
    10     1     2   ar
    11     2     3   ar
    12     3    26    1
    13    26    27   ar
    14    27    28   ar
    15    28    29   ar
    16    29    32    1
    17    32    33    2
    18    32    34   am
    19    34    36    1
    20    36    37   ar
    21    37    38   ar
    22    38    42    1
    23    42    43    1
    24    42    44    1
    25    42    45    1
    26    38    39   ar
    27    39    40   ar
    28    40    41   ar
    29    29    30   ar
    30    30    31   ar
    31     3     4   ar
    32     4     5   ar
    33     5     6    1
    34     5     7   ar
    35     7     8   ar
    36     8     9   ar
    37     9    10   ar
    38    19    20    1
    39    22    23    1
    40    23    24    1
    41    24    25    1
    42    25    22    1
    43    20    15    1
    44    10     1   ar
    45    31    26   ar
    46    10     4   ar
    47    41    36   ar
    48    34    35    1
    49     6    11    1
    50     6    12    1
@<TRIPOS>MOLECULE
*****
 45 50 0 0 0
SMALL
GASTEIGER

@<TRIPOS>ATOM
      1 C         139.5576  138.4331  156.8769 C.ar    1  UNL1        0.1534
      2 N         139.8888  138.0721  158.2947 N.ar    1  UNL1       -0.2280
      3 C         139.4869  139.2209  159.1714 C.ar    1  UNL1        0.1014
      4 C         138.9075  140.2919  158.2955 C.ar    1  UNL1        0.1141
      5 C         138.3458  141.6476  158.6060 C.ar    1  UNL1        0.1432
      6 N         138.3021  142.1346  160.0241 N.pl3   1  UNL1       -0.3414
      7 N         137.8277  142.5164  157.4984 N.ar    1  UNL1       -0.2265
      8 C         137.8714  142.0295  156.0803 C.ar    1  UNL1        0.1193
      9 C         138.4331  140.6738  155.7698 C.ar    1  UNL1        0.1021
     10 N         138.9512  139.8050  156.8774 N.ar    1  UNL1       -0.2865
     11 H         138.6421  141.5644  160.7511 H       1  UNL1        0.1438
     12 H         137.9334  143.0244  160.2279 H       1  UNL1        0.1438
     13 C         142.1241  134.5701  154.5338 C.2     1  UNL1        0.2297
     14 O         142.3583  133.7101  153.3273 O.2     1  UNL1       -0.2747
     15 N         141.0750  135.6416  154.4988 N.am    1  UNL1       -0.2739
     16 C         140.2602  135.8532  153.2574 C.3     1  UNL1        0.1255
     17 C         139.2111  136.9247  153.2224 C.3     1  UNL1        0.1641
     18 O         138.9769  137.7847  154.4289 O.3     1  UNL1       -0.3451
     19 C         139.7918  137.5731  155.6704 C.3     1  UNL1        0.1913
     20 C         140.8408  136.5016  155.7053 C.3     1  UNL1        0.1307
     21 C         143.7540  135.5744  155.4475 C.3     1  UNL1        0.0142
     22 C         142.9390  134.3584  155.7752 C.3     1  UNL1        0.1234
     23 C         142.1242  133.1424  156.1029 C.3     1  UNL1        0.1531
     24 O         142.9391  132.9309  157.3443 O.3     1  UNL1       -0.3526
     25 C         143.7540  134.1468  157.0166 C.3     1  UNL1        0.1531
     26 C         139.6380  139.2872  160.6623 C.ar    1  UNL1        0.0192
     27 C         138.5634  138.7333  161.5504 C.ar    1  UNL1        0.0017
     28 C         138.7145  138.7996  163.0413 C.ar    1  UNL1        0.0046
     29 C         139.9401  139.4196  163.6442 C.ar    1  UNL1        0.0537
     30 C         141.0146  139.9734  162.7561 C.ar    1  UNL1        0.0046
     31 C         140.8635  139.9072  161.2652 C.ar    1  UNL1        0.0017
     32 C         140.0912  139.4859  165.1351 C.2     1  UNL1        0.2505
     33 O         139.1336  138.7440  166.0197 O.2     1  UNL1       -0.2698
     34 N         141.2000  140.2940  165.7413 N.am    1  UNL1       -0.2658
     35 H         141.8285  140.7809  165.1607 H       1  UNL1        0.1566
     36 C         141.3511  140.3603  167.2322 C.ar    1  UNL1        0.1343
     37 C         140.5602  141.3602  168.0226 C.ar    1  UNL1        0.0383
     38 C         140.7115  141.4264  169.5135 C.ar    1  UNL1        0.0757
     39 C         141.6536  140.4928  170.2140 C.ar    1  UNL1        0.0246
     40 C         142.4445  139.4929  169.4236 C.ar    1  UNL1        0.1003
     41 N         142.2933  139.4267  167.9327 N.ar    1  UNL1       -0.2290
     42 C         139.9205  142.4263  170.3038 C.3     1  UNL1        0.4187
     43 F         139.1296  143.4263  171.0942 F       1  UNL1       -0.1659
     44 F         138.7575  141.4795  170.3378 F       1  UNL1       -0.1659
     45 F         141.0835  143.3731  170.2698 F       1  UNL1       -0.1659
@<TRIPOS>BOND
     1    21    22    1
     2    22    13    1
     3    13    14    2
     4    13    15   am
     5    15    16    1
     6    16    17    1
     7    17    18    1
     8    18    19    1
     9    19     1    1
    10     1     2   ar
    11     2     3   ar
    12     3    26    1
    13    26    27   ar
    14    27    28   ar
    15    28    29   ar
    16    29    32    1
    17    32    33    2
    18    32    34   am
    19    34    36    1
    20    36    37   ar
    21    37    38   ar
    22    38    42    1
    23    42    43    1
    24    42    44    1
    25    42    45    1
    26    38    39   ar
    27    39    40   ar
    28    40    41   ar
    29    29    30   ar
    30    30    31   ar
    31     3     4   ar
    32     4     5   ar
    33     5     6    1
    34     5     7   ar
    35     7     8   ar
    36     8     9   ar
    37     9    10   ar
    38    19    20    1
    39    22    23    1
    40    23    24    1
    41    24    25    1
    42    25    22    1
    43    20    15    1
    44    10     1   ar
    45    31    26   ar
    46    10     4   ar
    47    41    36   ar
    48    34    35    1
    49     6    11    1
    50     6    12    1
@<TRIPOS>MOLECULE
*****
 45 50 0 0 0
SMALL
GASTEIGER

@<TRIPOS>ATOM
      1 C         139.4650  138.4770  156.3638 C.ar    1  UNL1        0.1534
      2 N         139.9103  138.1081  157.7478 N.ar    1  UNL1       -0.2280
      3 C         139.5127  139.2188  158.6741 C.ar    1  UNL1        0.1014
      4 C         138.8217  140.2743  157.8626 C.ar    1  UNL1        0.1141
      5 C         138.2155  141.5935  158.2395 C.ar    1  UNL1        0.1432
      6 N         138.2450  142.0520  159.6674 N.pl3   1  UNL1       -0.3414
      7 N         137.5798  142.4543  157.1884 N.ar    1  UNL1       -0.2265
      8 C         137.5503  141.9959  155.7604 C.ar    1  UNL1        0.1193
      9 C         138.1565  140.6766  155.3836 C.ar    1  UNL1        0.1021
     10 N         138.7922  139.8158  156.4347 N.ar    1  UNL1       -0.2865
     11 H         138.6623  141.4870  160.3572 H       1  UNL1        0.1438
     12 H         137.8472  142.9179  159.9147 H       1  UNL1        0.1438
     13 C         141.6127  134.3995  153.9637 C.2     1  UNL1        0.2297
     14 O         141.8062  133.5745  152.7260 O.2     1  UNL1       -0.2747
     15 N         140.7323  135.6133  153.9260 N.am    1  UNL1       -0.2739
     16 C         140.0454  136.0021  152.6505 C.3     1  UNL1        0.1255
     17 C         139.1649  137.2160  152.6127 C.3     1  UNL1        0.1641
     18 O         138.9714  138.0410  153.8505 O.3     1  UNL1       -0.3451
     19 C         139.6585  137.6521  155.1260 C.3     1  UNL1        0.1913
     20 C         140.5388  136.4383  155.1637 C.3     1  UNL1        0.1307
     21 C         141.2987  132.9122  155.4434 C.3     1  UNL1        0.0142
     22 C         142.2997  134.0105  155.2391 C.3     1  UNL1        0.1234
     23 C         143.3007  135.1088  155.0350 C.3     1  UNL1        0.1531
     24 O         143.9877  134.7198  156.3104 O.3     1  UNL1       -0.3526
     25 C         142.9867  133.6215  156.5147 C.3     1  UNL1        0.1531
     26 C         139.7624  139.2659  160.1525 C.ar    1  UNL1        0.0192
     27 C         140.9268  140.0426  160.6921 C.ar    1  UNL1        0.0017
     28 C         141.1765  140.0897  162.1705 C.ar    1  UNL1        0.0046
     29 C         140.2617  139.3602  163.1092 C.ar    1  UNL1        0.0537
     30 C         139.0974  138.5837  162.5695 C.ar    1  UNL1        0.0046
     31 C         138.8477  138.5366  161.0912 C.ar    1  UNL1        0.0017
     32 C         140.5114  139.4073  164.5875 C.2     1  UNL1        0.2505
     33 O         140.9633  138.1738  165.3115 O.2     1  UNL1       -0.2698
     34 N         140.3091  140.6880  165.3418 N.am    1  UNL1       -0.2658
     35 H         140.0125  141.4976  164.8665 H       1  UNL1        0.1566
     36 C         140.5587  140.7352  166.8201 C.ar    1  UNL1        0.1343
     37 C         141.8227  141.3463  167.3483 C.ar    1  UNL1        0.0383
     38 C         142.0722  141.3935  168.8266 C.ar    1  UNL1        0.0757
     39 C         141.0578  140.8295  169.7768 C.ar    1  UNL1        0.0246
     40 C         139.7939  140.2183  169.2487 C.ar    1  UNL1        0.1003
     41 N         139.5443  140.1712  167.7703 N.ar    1  UNL1       -0.2290
     42 C         143.3361  142.0046  169.3547 C.3     1  UNL1        0.4187
     43 F         144.6002  142.6158  169.8828 F       1  UNL1       -0.1659
     44 F         143.6474  142.5411  167.9889 F       1  UNL1       -0.1659
     45 F         143.0249  141.4682  170.7205 F       1  UNL1       -0.1659
@<TRIPOS>BOND
     1    21    22    1
     2    22    13    1
     3    13    14    2
     4    13    15   am
     5    15    16    1
     6    16    17    1
     7    17    18    1
     8    18    19    1
     9    19     1    1
    10     1     2   ar
    11     2     3   ar
    12     3    26    1
    13    26    27   ar
    14    27    28   ar
    15    28    29   ar
    16    29    32    1
    17    32    33    2
    18    32    34   am
    19    34    36    1
    20    36    37   ar
    21    37    38   ar
    22    38    42    1
    23    42    43    1
    24    42    44    1
    25    42    45    1
    26    38    39   ar
    27    39    40   ar
    28    40    41   ar
    29    29    30   ar
    30    30    31   ar
    31     3     4   ar
    32     4     5   ar
    33     5     6    1
    34     5     7   ar
    35     7     8   ar
    36     8     9   ar
    37     9    10   ar
    38    19    20    1
    39    22    23    1
    40    23    24    1
    41    24    25    1
    42    25    22    1
    43    20    15    1
    44    10     1   ar
    45    31    26   ar
    46    10     4   ar
    47    41    36   ar
    48    34    35    1
    49     6    11    1
    50     6    12    1
@<TRIPOS>MOLECULE
*****
 45 50 0 0 0
SMALL
GASTEIGER

@<TRIPOS>ATOM
      1 C         142.1885  139.7481  158.7553 C.ar    1  UNL1        0.1534
      2 N         141.6275  138.3927  158.4420 N.ar    1  UNL1       -0.2280
      3 C         142.4430  137.7988  157.3320 C.ar    1  UNL1        0.1014
      4 C         143.5081  138.7871  156.9593 C.ar    1  UNL1        0.1141
      5 C         144.6008  138.7457  155.9326 C.ar    1  UNL1        0.1432
      6 N         144.7582  137.5409  155.0529 N.pl3   1  UNL1       -0.3414
      7 N         145.5362  139.9090  155.7855 N.ar    1  UNL1       -0.2265
      8 C         145.3789  141.1138  156.6651 C.ar    1  UNL1        0.1193
      9 C         144.2861  141.1552  157.6918 C.ar    1  UNL1        0.1021
     10 N         143.3507  139.9919  157.8389 N.ar    1  UNL1       -0.2865
     11 H         144.1442  136.7773  155.1495 H       1  UNL1        0.1438
     12 H         145.4754  137.5137  154.3791 H       1  UNL1        0.1438
     13 C         142.7360  142.0842  163.3643 C.2     1  UNL1        0.2297
     14 O         142.2245  143.0298  164.4103 O.2     1  UNL1       -0.2747
     15 N         141.9507  141.8618  162.1057 N.am    1  UNL1       -0.2739
     16 C         140.6539  142.5852  161.8932 C.3     1  UNL1        0.1255
     17 C         139.8687  142.3629  160.6347 C.3     1  UNL1        0.1641
     18 O         140.3802  141.4172  159.5887 O.3     1  UNL1       -0.3451
     19 C         141.6770  140.6938  159.8012 C.3     1  UNL1        0.1913
     20 C         142.4622  140.9162  161.0597 C.3     1  UNL1        0.1307
     21 C         143.3056  140.2729  164.3104 C.3     1  UNL1        0.0142
     22 C         144.0327  141.3609  163.5769 C.3     1  UNL1        0.1234
     23 C         144.7598  142.4487  162.8435 C.3     1  UNL1        0.1531
     24 O         146.0565  141.7253  163.0561 O.3     1  UNL1       -0.3526
     25 C         145.3295  140.6374  163.7896 C.3     1  UNL1        0.1531
     26 C         142.2309  136.4528  156.7048 C.ar    1  UNL1        0.0192
     27 C         143.0055  135.2659  157.1962 C.ar    1  UNL1        0.0017
     28 C         142.7933  133.9199  156.5690 C.ar    1  UNL1        0.0046
     29 C         141.8066  133.7608  155.4505 C.ar    1  UNL1        0.0537
     30 C         141.0320  134.9477  154.9592 C.ar    1  UNL1        0.0046
     31 C         141.2442  136.2936  155.5864 C.ar    1  UNL1        0.0017
     32 C         141.5944  132.4148  154.8234 C.2     1  UNL1        0.2505
     33 O         141.0572  132.3146  153.4264 O.2     1  UNL1       -0.2698
     34 N         141.9194  131.1692  155.5932 N.am    1  UNL1       -0.2658
     35 H         142.2720  131.2350  156.5100 H       1  UNL1        0.1566
     36 C         141.7072  129.8231  154.9660 C.ar    1  UNL1        0.1343
     37 C         140.3849  129.1294  155.1082 C.ar    1  UNL1        0.0383
     38 C         140.1729  127.7834  154.4811 C.ar    1  UNL1        0.0757
     39 C         141.2831  127.1311  153.7118 C.ar    1  UNL1        0.0246
     40 C         142.6054  127.8248  153.5696 C.ar    1  UNL1        0.1003
     41 N         142.8175  129.1708  154.1967 N.ar    1  UNL1       -0.2290
     42 C         138.8505  127.0898  154.6233 C.3     1  UNL1        0.4187
     43 F         137.5281  126.3961  154.7654 F       1  UNL1       -0.1659
     44 F         138.7651  127.5449  156.0500 F       1  UNL1       -0.1659
     45 F         138.9358  126.6346  153.1965 F       1  UNL1       -0.1659
@<TRIPOS>BOND
     1    21    22    1
     2    22    13    1
     3    13    14    2
     4    13    15   am
     5    15    16    1
     6    16    17    1
     7    17    18    1
     8    18    19    1
     9    19     1    1
    10     1     2   ar
    11     2     3   ar
    12     3    26    1
    13    26    27   ar
    14    27    28   ar
    15    28    29   ar
    16    29    32    1
    17    32    33    2
    18    32    34   am
    19    34    36    1
    20    36    37   ar
    21    37    38   ar
    22    38    42    1
    23    42    43    1
    24    42    44    1
    25    42    45    1
    26    38    39   ar
    27    39    40   ar
    28    40    41   ar
    29    29    30   ar
    30    30    31   ar
    31     3     4   ar
    32     4     5   ar
    33     5     6    1
    34     5     7   ar
    35     7     8   ar
    36     8     9   ar
    37     9    10   ar
    38    19    20    1
    39    22    23    1
    40    23    24    1
    41    24    25    1
    42    25    22    1
    43    20    15    1
    44    10     1   ar
    45    31    26   ar
    46    10     4   ar
    47    41    36   ar
    48    34    35    1
    49     6    11    1
    50     6    12    1
@<TRIPOS>MOLECULE
*****
 45 50 0 0 0
SMALL
GASTEIGER

@<TRIPOS>ATOM
      1 C         137.9385  141.6062  157.3633 C.ar    1  UNL1        0.1534
      2 N         137.9587  141.2310  158.8154 N.ar    1  UNL1       -0.2280
      3 C         138.7224  142.2879  159.5567 C.ar    1  UNL1        0.1014
      4 C         139.1742  143.3165  158.5628 C.ar    1  UNL1        0.1141
      5 C         139.9642  144.5822  158.7169 C.ar    1  UNL1        0.1432
      6 N         140.4487  145.0035  160.0726 N.pl3   1  UNL1       -0.3414
      7 N         140.2697  145.4266  157.5155 N.ar    1  UNL1       -0.2265
      8 C         139.7853  145.0053  156.1598 C.ar    1  UNL1        0.1193
      9 C         138.9953  143.7396  156.0056 C.ar    1  UNL1        0.1021
     10 N         138.6898  142.8951  157.2071 N.ar    1  UNL1       -0.2865
     11 H         140.2482  144.4492  160.8612 H       1  UNL1        0.1438
     12 H         140.9672  145.8342  160.1738 H       1  UNL1        0.1438
     13 C         138.1543  137.9096  153.7180 C.2     1  UNL1        0.2297
     14 O         137.4981  137.1325  152.6155 O.2     1  UNL1       -0.2747
     15 N         137.3902  138.9808  154.4381 N.am    1  UNL1       -0.2739
     16 C         135.9698  139.2748  154.0558 C.3     1  UNL1        0.1255
     17 C         135.2057  140.3460  154.7760 C.3     1  UNL1        0.1641
     18 O         135.8619  141.1231  155.8785 O.3     1  UNL1       -0.3451
     19 C         137.2823  140.8291  156.2608 C.3     1  UNL1        0.1913
     20 C         138.0464  139.7580  155.5406 C.3     1  UNL1        0.1307
     21 C         140.0566  138.4347  152.9396 C.3     1  UNL1        0.0142
     22 C         139.5746  137.6156  154.1002 C.3     1  UNL1        0.1234
     23 C         139.0928  136.7965  155.2607 C.3     1  UNL1        0.1531
     24 O         140.5132  136.5024  155.6429 O.3     1  UNL1       -0.3526
     25 C         140.9951  137.3215  154.4824 C.3     1  UNL1        0.1531
     26 C         138.9877  142.3121  161.0329 C.ar    1  UNL1        0.0192
     27 C         140.2399  141.6934  161.5801 C.ar    1  UNL1        0.0017
     28 C         140.5052  141.7176  163.0563 C.ar    1  UNL1        0.0046
     29 C         139.5184  142.3606  163.9852 C.ar    1  UNL1        0.0537
     30 C         138.2663  142.9793  163.4380 C.ar    1  UNL1        0.0046
     31 C         138.0010  142.9550  161.9618 C.ar    1  UNL1        0.0017
     32 C         139.7837  142.3848  165.4614 C.2     1  UNL1        0.2505
     33 O         139.6725  143.6726  166.2224 O.2     1  UNL1       -0.2698
     34 N         140.1603  141.1211  166.1765 N.am    1  UNL1       -0.2658
     35 H         140.2332  140.2759  165.6770 H       1  UNL1        0.1566
     36 C         140.4256  141.1453  167.6526 C.ar    1  UNL1        0.1343
     37 C         141.5931  141.9170  168.1924 C.ar    1  UNL1        0.0383
     38 C         141.8584  141.9410  169.6685 C.ar    1  UNL1        0.0757
     39 C         140.9561  141.1934  170.6050 C.ar    1  UNL1        0.0246
     40 C         139.7886  140.4218  170.0653 C.ar    1  UNL1        0.1003
     41 N         139.5233  140.3977  168.5891 N.ar    1  UNL1       -0.2290
     42 C         143.0260  142.7127  170.2082 C.3     1  UNL1        0.4187
     43 F         144.1937  143.4844  170.7478 F       1  UNL1       -0.1659
     44 F         142.1536  143.9227  170.3656 F       1  UNL1       -0.1659
     45 F         143.8985  141.5027  170.0507 F       1  UNL1       -0.1659
@<TRIPOS>BOND
     1    21    22    1
     2    22    13    1
     3    13    14    2
     4    13    15   am
     5    15    16    1
     6    16    17    1
     7    17    18    1
     8    18    19    1
     9    19     1    1
    10     1     2   ar
    11     2     3   ar
    12     3    26    1
    13    26    27   ar
    14    27    28   ar
    15    28    29   ar
    16    29    32    1
    17    32    33    2
    18    32    34   am
    19    34    36    1
    20    36    37   ar
    21    37    38   ar
    22    38    42    1
    23    42    43    1
    24    42    44    1
    25    42    45    1
    26    38    39   ar
    27    39    40   ar
    28    40    41   ar
    29    29    30   ar
    30    30    31   ar
    31     3     4   ar
    32     4     5   ar
    33     5     6    1
    34     5     7   ar
    35     7     8   ar
    36     8     9   ar
    37     9    10   ar
    38    19    20    1
    39    22    23    1
    40    23    24    1
    41    24    25    1
    42    25    22    1
    43    20    15    1
    44    10     1   ar
    45    31    26   ar
    46    10     4   ar
    47    41    36   ar
    48    34    35    1
    49     6    11    1
    50     6    12    1
@<TRIPOS>MOLECULE
*****
 45 50 0 0 0
SMALL
GASTEIGER

@<TRIPOS>ATOM
      1 C         139.2976  139.8067  157.1571 C.ar    1  UNL1        0.1534
      2 N         139.1693  140.2931  158.5703 N.ar    1  UNL1       -0.2280
      3 C         140.3114  139.7269  159.3608 C.ar    1  UNL1        0.1014
      4 C         141.1456  138.8905  158.4363 C.ar    1  UNL1        0.1141
      5 C         142.3947  138.0905  158.6587 C.ar    1  UNL1        0.1432
      6 N         143.0213  138.0412  160.0207 N.pl3   1  UNL1       -0.3414
      7 N         143.0173  137.3397  157.5191 N.ar    1  UNL1       -0.2265
      8 C         142.3907  137.3890  156.1571 C.ar    1  UNL1        0.1193
      9 C         141.1416  138.1891  155.9347 C.ar    1  UNL1        0.1021
     10 N         140.5190  138.9399  157.0743 N.ar    1  UNL1       -0.2865
     11 H         142.6127  138.5339  160.7686 H       1  UNL1        0.1438
     12 H         143.8412  137.5160  160.1666 H       1  UNL1        0.1438
     13 C         137.5197  143.1657  153.6137 C.2     1  UNL1        0.2297
     14 O         136.5899  143.4893  152.4820 O.2     1  UNL1       -0.2747
     15 N         137.4788  141.8097  154.2537 N.am    1  UNL1       -0.2739
     16 C         136.5081  140.7773  153.7621 C.3     1  UNL1        0.1255
     17 C         136.4672  139.4214  154.4021 C.3     1  UNL1        0.1641
     18 O         137.3970  139.0978  155.5338 O.3     1  UNL1       -0.3451
     19 C         138.3678  140.1303  156.0255 C.3     1  UNL1        0.1913
     20 C         138.4087  141.4862  155.3854 C.3     1  UNL1        0.1307
     21 C         137.4526  144.7229  155.0528 C.3     1  UNL1        0.0142
     22 C         138.4904  144.1982  154.1053 C.3     1  UNL1        0.1234
     23 C         139.5284  143.6736  153.1580 C.3     1  UNL1        0.1531
     24 O         140.4990  144.7061  153.6497 O.3     1  UNL1       -0.3526
     25 C         139.4612  145.2307  154.5970 C.3     1  UNL1        0.1531
     26 C         140.5734  139.9567  160.8198 C.ar    1  UNL1        0.0192
     27 C         140.0200  139.0064  161.8400 C.ar    1  UNL1        0.0017
     28 C         140.2819  139.2361  163.2989 C.ar    1  UNL1        0.0046
     29 C         141.0974  140.4162  163.7378 C.ar    1  UNL1        0.0537
     30 C         141.6508  141.3664  162.7176 C.ar    1  UNL1        0.0046
     31 C         141.3888  141.1366  161.2587 C.ar    1  UNL1        0.0017
     32 C         141.3594  140.6459  165.1967 C.2     1  UNL1        0.2505
     33 O         141.3398  139.4907  166.1533 O.2     1  UNL1       -0.2698
     34 N         141.6410  142.0310  165.6990 N.am    1  UNL1       -0.2658
     35 H         141.6538  142.7892  165.0712 H       1  UNL1        0.1566
     36 C         141.9030  142.2608  167.1580 C.ar    1  UNL1        0.1343
     37 C         140.7746  142.6346  168.0729 C.ar    1  UNL1        0.0383
     38 C         141.0367  142.8644  169.5319 C.ar    1  UNL1        0.0757
     39 C         142.4272  142.7206  170.0759 C.ar    1  UNL1        0.0246
     40 C         143.5555  142.3468  169.1609 C.ar    1  UNL1        0.1003
     41 N         143.2934  142.1170  167.7020 N.ar    1  UNL1       -0.2290
     42 C         139.9083  143.2382  170.4467 C.3     1  UNL1        0.4187
     43 F         138.7799  143.6120  171.3616 F       1  UNL1       -0.1659
     44 F         139.5908  141.7861  170.6484 F       1  UNL1       -0.1659
     45 F         140.2258  144.6903  170.2451 F       1  UNL1       -0.1659
@<TRIPOS>BOND
     1    21    22    1
     2    22    13    1
     3    13    14    2
     4    13    15   am
     5    15    16    1
     6    16    17    1
     7    17    18    1
     8    18    19    1
     9    19     1    1
    10     1     2   ar
    11     2     3   ar
    12     3    26    1
    13    26    27   ar
    14    27    28   ar
    15    28    29   ar
    16    29    32    1
    17    32    33    2
    18    32    34   am
    19    34    36    1
    20    36    37   ar
    21    37    38   ar
    22    38    42    1
    23    42    43    1
    24    42    44    1
    25    42    45    1
    26    38    39   ar
    27    39    40   ar
    28    40    41   ar
    29    29    30   ar
    30    30    31   ar
    31     3     4   ar
    32     4     5   ar
    33     5     6    1
    34     5     7   ar
    35     7     8   ar
    36     8     9   ar
    37     9    10   ar
    38    19    20    1
    39    22    23    1
    40    23    24    1
    41    24    25    1
    42    25    22    1
    43    20    15    1
    44    10     1   ar
    45    31    26   ar
    46    10     4   ar
    47    41    36   ar
    48    34    35    1
    49     6    11    1
    50     6    12    1
@<TRIPOS>MOLECULE
*****
 45 50 0 0 0
SMALL
GASTEIGER

@<TRIPOS>ATOM
      1 C         140.1478  140.4661  165.2182 C.ar    1  UNL1        0.1534
      2 N         140.3521  139.4382  164.1451 N.ar    1  UNL1       -0.2280
      3 C         140.8109  140.1473  162.9054 C.ar    1  UNL1        0.1014
      4 C         140.8902  141.6134  163.2125 C.ar    1  UNL1        0.1141
      5 C         141.2826  142.7944  162.3751 C.ar    1  UNL1        0.1432
      6 N         141.6924  142.5974  160.9457 N.pl3   1  UNL1       -0.3414
      7 N         141.2652  144.1725  162.9672 N.ar    1  UNL1       -0.2265
      8 C         140.8554  144.3695  164.3966 C.ar    1  UNL1        0.1193
      9 C         140.4630  143.1885  165.2340 C.ar    1  UNL1        0.1021
     10 N         140.4804  141.8105  164.6419 N.ar    1  UNL1       -0.2865
     11 H         141.7038  141.6929  160.5571 H       1  UNL1        0.1438
     12 H         141.9500  143.3726  160.3961 H       1  UNL1        0.1438
     13 C         140.9563  140.7378  170.3439 C.2     1  UNL1        0.2297
     14 O         140.4996  140.4686  171.7471 O.2     1  UNL1       -0.2747
     15 N         140.0953  140.3328  169.1843 N.am    1  UNL1       -0.2739
     16 C         138.7777  139.6586  169.4279 C.3     1  UNL1        0.1255
     17 C         137.9168  139.2536  168.2683 C.3     1  UNL1        0.1641
     18 O         138.3734  139.5228  166.8650 O.3     1  UNL1       -0.3451
     19 C         139.6911  140.1970  166.6214 C.3     1  UNL1        0.1913
     20 C         140.5520  140.6019  167.7811 C.3     1  UNL1        0.1307
     21 C         142.9610  140.0788  170.1275 C.3     1  UNL1        0.0142
     22 C         142.2739  141.4120  170.1004 C.3     1  UNL1        0.1234
     23 C         141.5869  142.7451  170.0733 C.3     1  UNL1        0.1531
     24 O         142.9046  143.4192  169.8298 O.3     1  UNL1       -0.3526
     25 C         143.5916  142.0861  169.8569 C.3     1  UNL1        0.1531
     26 C         141.1338  139.5034  161.5897 C.ar    1  UNL1        0.0192
     27 C         142.5495  139.1276  161.2659 C.ar    1  UNL1        0.0017
     28 C         142.8723  138.4836  159.9502 C.ar    1  UNL1        0.0046
     29 C         141.7796  138.2154  158.9583 C.ar    1  UNL1        0.0537
     30 C         140.3640  138.5912  159.2821 C.ar    1  UNL1        0.0046
     31 C         140.0411  139.2351  160.5978 C.ar    1  UNL1        0.0017
     32 C         142.1024  137.5715  157.6426 C.2     1  UNL1        0.2505
     33 O         143.4794  137.7012  157.0619 O.2     1  UNL1       -0.2698
     34 N         141.0483  136.7979  156.9076 N.am    1  UNL1       -0.2658
     35 H         140.1446  136.7128  157.2888 H       1  UNL1        0.1566
     36 C         141.3711  136.1538  155.5919 C.ar    1  UNL1        0.1343
     37 C         142.0028  134.7938  155.5574 C.ar    1  UNL1        0.0383
     38 C         142.3256  134.1499  154.2416 C.ar    1  UNL1        0.0757
     39 C         142.0165  134.8660  152.9603 C.ar    1  UNL1        0.0246
     40 C         141.3848  136.2260  152.9948 C.ar    1  UNL1        0.1003
     41 N         141.0620  136.8699  154.3106 N.ar    1  UNL1       -0.2290
     42 C         142.9573  132.7899  154.2072 C.3     1  UNL1        0.4187
     43 F         143.5892  131.4298  154.1729 F       1  UNL1       -0.1659
     44 F         142.3883  132.5601  152.8385 F       1  UNL1       -0.1659
     45 F         143.5265  133.0197  155.5760 F       1  UNL1       -0.1659
@<TRIPOS>BOND
     1    21    22    1
     2    22    13    1
     3    13    14    2
     4    13    15   am
     5    15    16    1
     6    16    17    1
     7    17    18    1
     8    18    19    1
     9    19     1    1
    10     1     2   ar
    11     2     3   ar
    12     3    26    1
    13    26    27   ar
    14    27    28   ar
    15    28    29   ar
    16    29    32    1
    17    32    33    2
    18    32    34   am
    19    34    36    1
    20    36    37   ar
    21    37    38   ar
    22    38    42    1
    23    42    43    1
    24    42    44    1
    25    42    45    1
    26    38    39   ar
    27    39    40   ar
    28    40    41   ar
    29    29    30   ar
    30    30    31   ar
    31     3     4   ar
    32     4     5   ar
    33     5     6    1
    34     5     7   ar
    35     7     8   ar
    36     8     9   ar
    37     9    10   ar
    38    19    20    1
    39    22    23    1
    40    23    24    1
    41    24    25    1
    42    25    22    1
    43    20    15    1
    44    10     1   ar
    45    31    26   ar
    46    10     4   ar
    47    41    36   ar
    48    34    35    1
    49     6    11    1
    50     6    12    1
@<TRIPOS>MOLECULE
*****
 45 50 0 0 0
SMALL
GASTEIGER

@<TRIPOS>ATOM
      1 C         140.2825  142.6666  161.6033 C.ar    1  UNL1        0.1534
      2 N         140.5466  141.2462  161.1999 N.ar    1  UNL1       -0.2280
      3 C         140.8196  141.2263  159.7251 C.ar    1  UNL1        0.1014
      4 C         140.7243  142.6344  159.2171 C.ar    1  UNL1        0.1141
      5 C         140.8968  143.2211  157.8474 C.ar    1  UNL1        0.1432
      6 N         141.2288  142.3310  156.6866 N.pl3   1  UNL1       -0.3414
      7 N         140.7374  144.6979  157.6385 N.ar    1  UNL1       -0.2265
      8 C         140.4055  145.5880  158.7993 C.ar    1  UNL1        0.1193
      9 C         140.2329  145.0014  160.1690 C.ar    1  UNL1        0.1021
     10 N         140.3923  143.5246  160.3779 N.ar    1  UNL1       -0.2865
     11 H         141.3334  141.3617  156.8237 H       1  UNL1        0.1438
     12 H         141.3420  142.7160  155.7876 H       1  UNL1        0.1438
     13 C         140.9864  142.3597  166.7424 C.2     1  UNL1        0.2297
     14 O         140.6684  142.8382  168.1280 O.2     1  UNL1       -0.2747
     15 N         140.3164  142.9916  165.5585 N.am    1  UNL1       -0.2739
     16 C         139.3282  144.1020  165.7602 C.3     1  UNL1        0.1255
     17 C         138.6582  144.7339  164.5763 C.3     1  UNL1        0.1641
     18 O         138.9762  144.2554  163.1906 O.3     1  UNL1       -0.3451
     19 C         139.9644  143.1450  162.9890 C.3     1  UNL1        0.1913
     20 C         140.6344  142.5132  164.1729 C.3     1  UNL1        0.1307
     21 C         143.0877  142.2525  166.4718 C.3     1  UNL1        0.0142
     22 C         141.9746  141.2494  166.5408 C.3     1  UNL1        0.1234
     23 C         140.8615  140.2462  166.6099 C.3     1  UNL1        0.1531
     24 O         141.8497  139.1359  166.4082 O.3     1  UNL1       -0.3526
     25 C         142.9628  140.1390  166.3392 C.3     1  UNL1        0.1531
     26 C         141.1330  140.0116  158.9028 C.ar    1  UNL1        0.0192
     27 C         142.5560  139.5693  158.7302 C.ar    1  UNL1        0.0017
     28 C         142.8693  138.3546  157.9079 C.ar    1  UNL1        0.0046
     29 C         141.7598  137.5822  157.2580 C.ar    1  UNL1        0.0537
     30 C         140.3369  138.0245  157.4305 C.ar    1  UNL1        0.0046
     31 C         140.0236  139.2392  158.2529 C.ar    1  UNL1        0.0017
     32 C         142.0732  136.3675  156.4356 C.2     1  UNL1        0.2505
     33 O         143.4877  135.8807  156.3256 O.2     1  UNL1       -0.2698
     34 N         140.9720  135.6397  155.7232 N.am    1  UNL1       -0.2658
     35 H         140.0436  135.9592  155.7954 H       1  UNL1        0.1566
     36 C         141.2853  134.4250  154.9008 C.ar    1  UNL1        0.1343
     37 C         141.5148  133.1034  155.5721 C.ar    1  UNL1        0.0383
     38 C         141.8281  131.8887  154.7496 C.ar    1  UNL1        0.0757
     39 C         141.9118  131.9956  153.2558 C.ar    1  UNL1        0.0246
     40 C         141.6823  133.3172  152.5845 C.ar    1  UNL1        0.1003
     41 N         141.3690  134.5319  153.4070 N.ar    1  UNL1       -0.2290
     42 C         142.0576  130.5672  155.4211 C.3     1  UNL1        0.4187
     43 F         142.2872  129.2456  156.0925 F       1  UNL1       -0.1659
     44 F         140.6443  130.1672  155.1171 F       1  UNL1       -0.1659
     45 F         143.4710  130.9671  155.7251 F       1  UNL1       -0.1659
@<TRIPOS>BOND
     1    21    22    1
     2    22    13    1
     3    13    14    2
     4    13    15   am
     5    15    16    1
     6    16    17    1
     7    17    18    1
     8    18    19    1
     9    19     1    1
    10     1     2   ar
    11     2     3   ar
    12     3    26    1
    13    26    27   ar
    14    27    28   ar
    15    28    29   ar
    16    29    32    1
    17    32    33    2
    18    32    34   am
    19    34    36    1
    20    36    37   ar
    21    37    38   ar
    22    38    42    1
    23    42    43    1
    24    42    44    1
    25    42    45    1
    26    38    39   ar
    27    39    40   ar
    28    40    41   ar
    29    29    30   ar
    30    30    31   ar
    31     3     4   ar
    32     4     5   ar
    33     5     6    1
    34     5     7   ar
    35     7     8   ar
    36     8     9   ar
    37     9    10   ar
    38    19    20    1
    39    22    23    1
    40    23    24    1
    41    24    25    1
    42    25    22    1
    43    20    15    1
    44    10     1   ar
    45    31    26   ar
    46    10     4   ar
    47    41    36   ar
    48    34    35    1
    49     6    11    1
    50     6    12    1
@<TRIPOS>MOLECULE
*****
 45 50 0 0 0
SMALL
GASTEIGER

@<TRIPOS>ATOM
      1 C         138.4531  142.1253  157.8535 C.ar    1  UNL1        0.1534
      2 N         139.2514  143.3596  157.5546 N.ar    1  UNL1       -0.2280
      3 C         138.6983  143.9779  156.3049 C.ar    1  UNL1        0.1014
      4 C         137.5582  143.1258  155.8314 C.ar    1  UNL1        0.1141
      5 C         136.6385  143.2446  154.6524 C.ar    1  UNL1        0.1432
      6 N         136.7901  144.3895  153.6953 N.pl3   1  UNL1       -0.3414
      7 N         135.5673  142.2184  154.4306 N.ar    1  UNL1       -0.2265
      8 C         135.4158  141.0734  155.3877 C.ar    1  UNL1        0.1193
      9 C         136.3355  140.9546  156.5667 C.ar    1  UNL1        0.1021
     10 N         137.4067  141.9808  156.7885 N.ar    1  UNL1       -0.2865
     11 H         137.4932  145.0631  153.8409 H       1  UNL1        0.1438
     12 H         136.1864  144.4675  152.9215 H       1  UNL1        0.1438
     13 C         138.9804  141.3627  162.9662 C.2     1  UNL1        0.2297
     14 O         139.1915  140.4356  164.1264 O.2     1  UNL1       -0.2747
     15 N         138.9279  140.8169  161.5700 N.am    1  UNL1       -0.2739
     16 C         139.0864  139.3441  161.3340 C.3     1  UNL1        0.1255
     17 C         139.0338  138.7984  159.9378 C.3     1  UNL1        0.1641
     18 O         138.8227  139.7254  158.7776 O.3     1  UNL1       -0.3451
     19 C         138.6642  141.1983  159.0137 C.3     1  UNL1        0.1913
     20 C         138.7168  141.7440  160.4098 C.3     1  UNL1        0.1307
     21 C         137.3499  142.6426  163.4172 C.3     1  UNL1        0.0142
     22 C         138.8220  142.8354  163.2023 C.3     1  UNL1        0.1234
     23 C         140.2939  143.0284  162.9874 C.3     1  UNL1        0.1531
     24 O         140.1353  144.5011  163.2236 O.3     1  UNL1       -0.3526
     25 C         138.6634  144.3083  163.4384 C.3     1  UNL1        0.1531
     26 C         139.1976  145.2288  155.6445 C.ar    1  UNL1        0.0192
     27 C         140.2376  145.1441  154.5667 C.ar    1  UNL1        0.0017
     28 C         140.7369  146.3949  153.9063 C.ar    1  UNL1        0.0046
     29 C         140.1964  147.7304  154.3237 C.ar    1  UNL1        0.0537
     30 C         139.1565  147.8151  155.4014 C.ar    1  UNL1        0.0046
     31 C         138.6572  146.5643  156.0618 C.ar    1  UNL1        0.0017
     32 C         140.6957  148.9813  153.6633 C.2     1  UNL1        0.2505
     33 O         141.1633  148.9418  152.2386 O.2     1  UNL1       -0.2698
     34 N         140.7273  150.2715  154.4277 N.am    1  UNL1       -0.2658
     35 H         140.4203  150.2973  155.3627 H       1  UNL1        0.1566
     36 C         141.2266  151.5224  153.7674 C.ar    1  UNL1        0.1343
     37 C         142.4945  152.1671  154.2436 C.ar    1  UNL1        0.0383
     38 C         142.9937  153.4180  153.5832 C.ar    1  UNL1        0.0757
     39 C         142.2251  154.0242  152.4467 C.ar    1  UNL1        0.0246
     40 C         140.9572  153.3794  151.9705 C.ar    1  UNL1        0.1003
     41 N         140.4580  152.1285  152.6308 N.ar    1  UNL1       -0.2290
     42 C         144.2616  154.0627  154.0594 C.3     1  UNL1        0.4187
     43 F         145.5296  154.7073  154.5358 F       1  UNL1       -0.1659
     44 F         144.0088  155.2303  153.1524 F       1  UNL1       -0.1659
     45 F         144.5146  152.8950  154.9666 F       1  UNL1       -0.1659
@<TRIPOS>BOND
     1    21    22    1
     2    22    13    1
     3    13    14    2
     4    13    15   am
     5    15    16    1
     6    16    17    1
     7    17    18    1
     8    18    19    1
     9    19     1    1
    10     1     2   ar
    11     2     3   ar
    12     3    26    1
    13    26    27   ar
    14    27    28   ar
    15    28    29   ar
    16    29    32    1
    17    32    33    2
    18    32    34   am
    19    34    36    1
    20    36    37   ar
    21    37    38   ar
    22    38    42    1
    23    42    43    1
    24    42    44    1
    25    42    45    1
    26    38    39   ar
    27    39    40   ar
    28    40    41   ar
    29    29    30   ar
    30    30    31   ar
    31     3     4   ar
    32     4     5   ar
    33     5     6    1
    34     5     7   ar
    35     7     8   ar
    36     8     9   ar
    37     9    10   ar
    38    19    20    1
    39    22    23    1
    40    23    24    1
    41    24    25    1
    42    25    22    1
    43    20    15    1
    44    10     1   ar
    45    31    26   ar
    46    10     4   ar
    47    41    36   ar
    48    34    35    1
    49     6    11    1
    50     6    12    1
