@<TRIPOS>MOLECULE
*****
 35 38 0 0 0
SMALL
GASTEIGER

@<TRIPOS>ATOM
      1 C         142.0633  140.8403  167.3858 C.ar    1  UNL1        0.1432
      2 C         143.2208  141.7178  167.7599 C.ar    1  UNL1        0.0371
      3 C         143.2182  142.4437  169.0725 C.ar    1  UNL1        0.0047
      4 C         142.0580  142.2922  170.0110 C.ar    1  UNL1        0.0195
      5 C         140.9004  141.4147  169.6369 C.ar    1  UNL1        0.0887
      6 N         139.7401  141.2632  170.5755 N.ar    1  UNL1       -0.2238
      7 C         138.5825  140.3857  170.2013 C.ar    1  UNL1        0.2000
      8 N         138.5851  139.6597  168.8887 N.ar    1  UNL1       -0.2088
      9 C         139.7454  139.8113  167.9502 C.ar    1  UNL1        0.1383
     10 C         140.9030  140.6888  168.3243 C.ar    1  UNL1        0.0833
     11 N         139.7480  139.0853  166.6376 N.pl3   1  UNL1       -0.2977
     12 H         140.1581  138.1929  166.5694 H       1  UNL1        0.1536
     13 C         139.1258  139.7190  165.4288 C.ar    1  UNL1        0.0504
     14 C         138.7829  141.1793  165.4401 C.ar    1  UNL1        0.0178
     15 C         138.1607  141.8130  164.2313 C.ar    1  UNL1        0.0391
     16 C         137.8814  140.9865  163.0111 C.ar    1  UNL1        0.1496
     17 C         138.2243  139.5262  162.9998 C.ar    1  UNL1        0.0928
     18 CL        137.9449  138.6997  161.7796 Cl      1  UNL1       -0.0790
     19 C         138.8465  138.8925  164.2086 C.ar    1  UNL1        0.0291
     20 O         137.2592  141.6202  161.8023 O.3     1  UNL1       -0.4681
     21 C         138.1144  142.3707  160.8249 C.3     1  UNL1        0.2508
     22 C         139.1565  143.3287  161.3213 C.ar    1  UNL1        0.1026
     23 C         140.6110  142.9807  161.2057 C.ar    1  UNL1        0.0185
     24 C         141.6531  143.9386  161.7021 C.ar    1  UNL1        0.0029
     25 C         141.2407  145.2445  162.3140 C.ar    1  UNL1        0.0207
     26 C         139.7862  145.5925  162.4296 C.ar    1  UNL1        0.0986
     27 N         138.7441  144.6346  161.9332 N.ar    1  UNL1       -0.2445
     28 O         142.0659  140.1144  166.0732 O.3     1  UNL1       -0.4698
     29 C         143.7400  138.1898  166.5668 C.3     1  UNL1        0.0574
     30 C         143.2552  139.2926  165.6730 C.3     1  UNL1        0.2413
     31 C         143.9599  139.5736  164.3789 C.2     1  UNL1        0.2660
     32 O         145.1695  140.4606  164.3608 O.2     1  UNL1       -0.2710
     33 N         143.4550  138.9678  163.1030 N.am    1  UNL1       -0.2731
     34 C         144.1596  139.2488  161.8089 C.3     1  UNL1        0.1150
     35 C         142.2454  138.0809  163.1211 C.3     1  UNL1        0.1150
@<TRIPOS>BOND
     1    30    29    1
     2    30    28    1
     3    28     1    1
     4     1     2   ar
     5     2     3   ar
     6     3     4   ar
     7     4     5   ar
     8     5     6   ar
     9     6     7   ar
    10     7     8   ar
    11     8     9   ar
    12     9    11    1
    13    11    13    1
    14    13    14   ar
    15    14    15   ar
    16    15    16   ar
    17    16    20    1
    18    20    21    1
    19    21    22    1
    20    22    23   ar
    21    23    24   ar
    22    24    25   ar
    23    25    26   ar
    24    26    27   ar
    25    16    17   ar
    26    17    18    1
    27    17    19   ar
    28     9    10   ar
    29    30    31    1
    30    31    32    2
    31    31    33   am
    32    33    34    1
    33    33    35    1
    34    10     1   ar
    35    10     5   ar
    36    19    13   ar
    37    27    22   ar
    38    11    12    1
@<TRIPOS>MOLECULE
*****
 35 38 0 0 0
SMALL
GASTEIGER

@<TRIPOS>ATOM
      1 C         139.5207  143.2514  160.0516 C.ar    1  UNL1        0.1432
      2 C         138.4357  142.3431  159.5540 C.ar    1  UNL1        0.0371
      3 C         138.1088  142.2967  158.0907 C.ar    1  UNL1        0.0047
      4 C         138.8669  143.1586  157.1252 C.ar    1  UNL1        0.0195
      5 C         139.9519  144.0669  157.6229 C.ar    1  UNL1        0.0887
      6 N         140.7101  144.9289  156.6573 N.ar    1  UNL1       -0.2238
      7 C         141.7951  145.8372  157.1550 C.ar    1  UNL1        0.2000
      8 N         142.1220  145.8835  158.6182 N.ar    1  UNL1       -0.2088
      9 C         141.3639  145.0216  159.5838 C.ar    1  UNL1        0.1383
     10 C         140.2788  144.1133  159.0861 C.ar    1  UNL1        0.0833
     11 N         141.6908  145.0680  161.0470 N.pl3   1  UNL1       -0.2977
     12 H         141.2123  145.6926  161.6387 H       1  UNL1        0.1536
     13 C         142.7467  144.1627  161.6086 C.ar    1  UNL1        0.0504
     14 C         143.4165  143.1528  160.7246 C.ar    1  UNL1        0.0178
     15 C         144.4725  142.2476  161.2863 C.ar    1  UNL1        0.0391
     16 C         144.8587  142.3522  162.7320 C.ar    1  UNL1        0.1496
     17 C         144.1888  143.3621  163.6160 C.ar    1  UNL1        0.0928
     18 CL        144.5749  143.4668  165.0616 Cl      1  UNL1       -0.0790
     19 C         143.1329  144.2674  163.0543 C.ar    1  UNL1        0.0291
     20 O         145.9146  141.4470  163.2936 O.3     1  UNL1       -0.4681
     21 C         145.5252  140.2941  164.1706 C.3     1  UNL1        0.2508
     22 C         144.2625  139.5334  163.8927 C.ar    1  UNL1        0.1026
     23 C         143.1696  139.4935  164.9193 C.ar    1  UNL1        0.0185
     24 C         141.9070  138.7328  164.6414 C.ar    1  UNL1        0.0029
     25 C         141.7373  138.0121  163.3369 C.ar    1  UNL1        0.0207
     26 C         142.8302  138.0520  162.3103 C.ar    1  UNL1        0.0986
     27 N         144.0928  138.8127  162.5882 N.ar    1  UNL1       -0.2445
     28 O         139.8476  143.2977  161.5148 O.3     1  UNL1       -0.4698
     29 C         138.1536  144.7064  162.8917 C.3     1  UNL1        0.0574
     30 C         138.7441  143.3764  162.5277 C.3     1  UNL1        0.2413
     31 C         138.2309  142.1251  163.1767 C.2     1  UNL1        0.2660
     32 O         136.9638  141.4907  162.6850 O.2     1  UNL1       -0.2710
     33 N         138.9850  141.5083  164.3172 N.am    1  UNL1       -0.2731
     34 C         138.4719  140.2570  164.9662 C.3     1  UNL1        0.1150
     35 C         140.2522  142.1428  164.8089 C.3     1  UNL1        0.1150
@<TRIPOS>BOND
     1    30    29    1
     2    30    28    1
     3    28     1    1
     4     1     2   ar
     5     2     3   ar
     6     3     4   ar
     7     4     5   ar
     8     5     6   ar
     9     6     7   ar
    10     7     8   ar
    11     8     9   ar
    12     9    11    1
    13    11    13    1
    14    13    14   ar
    15    14    15   ar
    16    15    16   ar
    17    16    20    1
    18    20    21    1
    19    21    22    1
    20    22    23   ar
    21    23    24   ar
    22    24    25   ar
    23    25    26   ar
    24    26    27   ar
    25    16    17   ar
    26    17    18    1
    27    17    19   ar
    28     9    10   ar
    29    30    31    1
    30    31    32    2
    31    31    33   am
    32    33    34    1
    33    33    35    1
    34    10     1   ar
    35    10     5   ar
    36    19    13   ar
    37    27    22   ar
    38    11    12    1
@<TRIPOS>MOLECULE
*****
 35 38 0 0 0
SMALL
GASTEIGER

@<TRIPOS>ATOM
      1 C         141.8704  141.5811  168.0723 C.ar    1  UNL1        0.1432
      2 C         142.6377  142.5911  168.8729 C.ar    1  UNL1        0.0371
      3 C         142.1528  142.9943  170.2340 C.ar    1  UNL1        0.0047
      4 C         140.9008  142.3875  170.7943 C.ar    1  UNL1        0.0195
      5 C         140.1335  141.3775  169.9936 C.ar    1  UNL1        0.0887
      6 N         138.8813  140.7706  170.5540 N.ar    1  UNL1       -0.2238
      7 C         138.1141  139.7606  169.7533 C.ar    1  UNL1        0.2000
      8 N         138.5989  139.3574  168.3923 N.ar    1  UNL1       -0.2088
      9 C         139.8510  139.9642  167.8319 C.ar    1  UNL1        0.1383
     10 C         140.6183  140.9743  168.6326 C.ar    1  UNL1        0.0833
     11 N         140.3358  139.5610  166.4709 N.pl3   1  UNL1       -0.2977
     12 H         141.1209  138.9737  166.3821 H       1  UNL1        0.1536
     13 C         139.6244  140.0526  165.2453 C.ar    1  UNL1        0.0504
     14 C         139.7153  139.2780  163.9639 C.ar    1  UNL1        0.0178
     15 C         139.0039  139.7697  162.7383 C.ar    1  UNL1        0.0391
     16 C         138.2016  141.0359  162.7940 C.ar    1  UNL1        0.1496
     17 C         138.1107  141.8104  164.0753 C.ar    1  UNL1        0.0928
     18 CL        137.3084  143.0766  164.1310 Cl      1  UNL1       -0.0790
     19 C         138.8221  141.3188  165.3009 C.ar    1  UNL1        0.0291
     20 O         137.4902  141.5275  161.5683 O.3     1  UNL1       -0.4681
     21 C         138.2204  142.3694  160.5643 C.3     1  UNL1        0.2508
     22 C         139.4023  143.1889  160.9906 C.ar    1  UNL1        0.1026
     23 C         140.7812  142.6009  160.9373 C.ar    1  UNL1        0.0185
     24 C         141.9630  143.4204  161.3635 C.ar    1  UNL1        0.0029
     25 C         141.7659  144.8279  161.8430 C.ar    1  UNL1        0.0207
     26 C         140.3870  145.4160  161.8963 C.ar    1  UNL1        0.0986
     27 N         139.2052  144.5965  161.4700 N.ar    1  UNL1       -0.2445
     28 O         142.3552  141.1779  166.7112 O.3     1  UNL1       -0.4698
     29 C         141.5141  143.1150  165.1981 C.3     1  UNL1        0.0574
     30 C         142.6244  142.2241  165.6706 C.3     1  UNL1        0.2413
     31 C         144.0040  142.3793  165.1024 C.2     1  UNL1        0.2660
     32 O         144.9119  143.4549  165.6208 O.2     1  UNL1       -0.2710
     33 N         144.4756  141.4590  164.0159 N.am    1  UNL1       -0.2731
     34 C         145.8551  141.6142  163.4477 C.3     1  UNL1        0.1150
     35 C         143.5676  140.3834  163.4975 C.3     1  UNL1        0.1150
@<TRIPOS>BOND
     1    30    29    1
     2    30    28    1
     3    28     1    1
     4     1     2   ar
     5     2     3   ar
     6     3     4   ar
     7     4     5   ar
     8     5     6   ar
     9     6     7   ar
    10     7     8   ar
    11     8     9   ar
    12     9    11    1
    13    11    13    1
    14    13    14   ar
    15    14    15   ar
    16    15    16   ar
    17    16    20    1
    18    20    21    1
    19    21    22    1
    20    22    23   ar
    21    23    24   ar
    22    24    25   ar
    23    25    26   ar
    24    26    27   ar
    25    16    17   ar
    26    17    18    1
    27    17    19   ar
    28     9    10   ar
    29    30    31    1
    30    31    32    2
    31    31    33   am
    32    33    34    1
    33    33    35    1
    34    10     1   ar
    35    10     5   ar
    36    19    13   ar
    37    27    22   ar
    38    11    12    1
@<TRIPOS>MOLECULE
*****
 35 38 0 0 0
SMALL
GASTEIGER

@<TRIPOS>ATOM
      1 C         139.8329  139.4152  165.9259 C.ar    1  UNL1        0.1432
      2 C         138.8388  138.3586  165.5449 C.ar    1  UNL1        0.0371
      3 C         137.7784  137.9400  166.5198 C.ar    1  UNL1        0.0047
      4 C         137.7121  138.5780  167.8757 C.ar    1  UNL1        0.0195
      5 C         138.7063  139.6346  168.2567 C.ar    1  UNL1        0.0887
      6 N         138.6401  140.2727  169.6126 N.ar    1  UNL1       -0.2238
      7 C         139.6342  141.3293  169.9937 C.ar    1  UNL1        0.2000
      8 N         140.6946  141.7479  169.0188 N.ar    1  UNL1       -0.2088
      9 C         140.7609  141.1099  167.6629 C.ar    1  UNL1        0.1383
     10 C         139.7667  140.0532  167.2818 C.ar    1  UNL1        0.0833
     11 N         141.8212  141.5285  166.6880 N.pl3   1  UNL1       -0.2977
     12 H         142.6931  141.0712  166.6826 H       1  UNL1        0.1536
     13 C         141.5533  142.6437  165.7214 C.ar    1  UNL1        0.0504
     14 C         140.1885  143.2619  165.6491 C.ar    1  UNL1        0.0178
     15 C         139.9206  144.3772  164.6824 C.ar    1  UNL1        0.0391
     16 C         141.0175  144.8744  163.7882 C.ar    1  UNL1        0.1496
     17 C         142.3823  144.2562  163.8606 C.ar    1  UNL1        0.0928
     18 CL        143.4791  144.7534  162.9664 Cl      1  UNL1       -0.0790
     19 C         142.6502  143.1409  164.8272 C.ar    1  UNL1        0.0291
     20 O         140.7495  145.9896  162.8217 O.3     1  UNL1       -0.4681
     21 C         140.2288  145.6833  161.4487 C.3     1  UNL1        0.2508
     22 C         139.9481  144.2641  161.0524 C.ar    1  UNL1        0.1026
     23 C         141.0250  143.4360  160.4163 C.ar    1  UNL1        0.0185
     24 C         140.7444  142.0169  160.0200 C.ar    1  UNL1        0.0029
     25 C         139.3868  141.4257  160.2597 C.ar    1  UNL1        0.0207
     26 C         138.3099  142.2538  160.8958 C.ar    1  UNL1        0.0986
     27 N         138.5905  143.6730  161.2921 N.ar    1  UNL1       -0.2445
     28 O         140.8933  139.8338  164.9510 O.3     1  UNL1       -0.4698
     29 C         143.0011  138.3614  165.3244 C.3     1  UNL1        0.0574
     30 C         141.8822  138.8280  164.4409 C.3     1  UNL1        0.2413
     31 C         141.7524  138.2887  163.0471 C.2     1  UNL1        0.2660
     32 O         140.9698  137.0334  162.7986 O.2     1  UNL1       -0.2710
     33 N         142.4052  139.0047  161.9021 N.am    1  UNL1       -0.2731
     34 C         142.2753  138.4654  160.5084 C.3     1  UNL1        0.1150
     35 C         143.1878  140.2599  162.1507 C.3     1  UNL1        0.1150
@<TRIPOS>BOND
     1    30    29    1
     2    30    28    1
     3    28     1    1
     4     1     2   ar
     5     2     3   ar
     6     3     4   ar
     7     4     5   ar
     8     5     6   ar
     9     6     7   ar
    10     7     8   ar
    11     8     9   ar
    12     9    11    1
    13    11    13    1
    14    13    14   ar
    15    14    15   ar
    16    15    16   ar
    17    16    20    1
    18    20    21    1
    19    21    22    1
    20    22    23   ar
    21    23    24   ar
    22    24    25   ar
    23    25    26   ar
    24    26    27   ar
    25    16    17   ar
    26    17    18    1
    27    17    19   ar
    28     9    10   ar
    29    30    31    1
    30    31    32    2
    31    31    33   am
    32    33    34    1
    33    33    35    1
    34    10     1   ar
    35    10     5   ar
    36    19    13   ar
    37    27    22   ar
    38    11    12    1
@<TRIPOS>MOLECULE
*****
 35 38 0 0 0
SMALL
GASTEIGER

@<TRIPOS>ATOM
      1 C         141.5334  140.0148  167.9123 C.ar    1  UNL1        0.1432
      2 C         142.3905  138.9996  168.6083 C.ar    1  UNL1        0.0371
      3 C         142.9316  139.2870  169.9774 C.ar    1  UNL1        0.0047
      4 C         142.6156  140.5896  170.6506 C.ar    1  UNL1        0.0195
      5 C         141.7584  141.6049  169.9546 C.ar    1  UNL1        0.0887
      6 N         141.4423  142.9076  170.6277 N.ar    1  UNL1       -0.2238
      7 C         140.5851  143.9228  169.9317 C.ar    1  UNL1        0.2000
      8 N         140.0440  143.6354  168.5626 N.ar    1  UNL1       -0.2088
      9 C         140.3601  142.3328  167.8894 C.ar    1  UNL1        0.1383
     10 C         141.2173  141.3175  168.5854 C.ar    1  UNL1        0.0833
     11 N         139.8190  142.0454  166.5202 N.pl3   1  UNL1       -0.2977
     12 H         139.3908  141.1791  166.3320 H       1  UNL1        0.1536
     13 C         139.9302  143.0779  165.4379 C.ar    1  UNL1        0.0504
     14 C         138.6943  143.5878  164.7579 C.ar    1  UNL1        0.0178
     15 C         138.8056  144.6203  163.6754 C.ar    1  UNL1        0.0391
     16 C         140.1528  145.1429  163.2731 C.ar    1  UNL1        0.1496
     17 C         141.3887  144.6330  163.9531 C.ar    1  UNL1        0.0928
     18 CL        142.7359  145.1555  163.5508 Cl      1  UNL1       -0.0790
     19 C         141.2775  143.6005  165.0355 C.ar    1  UNL1        0.0291
     20 O         140.2641  146.1754  162.1907 O.3     1  UNL1       -0.4681
     21 C         140.1256  145.7723  160.7526 C.3     1  UNL1        0.2508
     22 C         140.7477  144.4961  160.2681 C.ar    1  UNL1        0.1026
     23 C         139.8812  143.3162  159.9413 C.ar    1  UNL1        0.0185
     24 C         140.5032  142.0401  159.4569 C.ar    1  UNL1        0.0029
     25 C         141.9917  141.9440  159.2993 C.ar    1  UNL1        0.0207
     26 C         142.8583  143.1240  159.6262 C.ar    1  UNL1        0.0986
     27 N         142.2363  144.4000  160.1106 N.ar    1  UNL1       -0.2445
     28 O         140.9923  139.7274  166.5431 O.3     1  UNL1       -0.4698
     29 C         143.3268  140.2224  165.5160 C.3     1  UNL1        0.0574
     30 C         141.8839  139.8504  165.3432 C.3     1  UNL1        0.2413
     31 C         141.3328  139.6014  163.9705 C.2     1  UNL1        0.2660
     32 O         141.1176  140.7492  163.0291 O.2     1  UNL1       -0.2710
     33 N         140.9968  138.2046  163.5392 N.am    1  UNL1       -0.2731
     34 C         140.4457  137.9555  162.1665 C.3     1  UNL1        0.1150
     35 C         141.2120  137.0568  164.4806 C.3     1  UNL1        0.1150
@<TRIPOS>BOND
     1    30    29    1
     2    30    28    1
     3    28     1    1
     4     1     2   ar
     5     2     3   ar
     6     3     4   ar
     7     4     5   ar
     8     5     6   ar
     9     6     7   ar
    10     7     8   ar
    11     8     9   ar
    12     9    11    1
    13    11    13    1
    14    13    14   ar
    15    14    15   ar
    16    15    16   ar
    17    16    20    1
    18    20    21    1
    19    21    22    1
    20    22    23   ar
    21    23    24   ar
    22    24    25   ar
    23    25    26   ar
    24    26    27   ar
    25    16    17   ar
    26    17    18    1
    27    17    19   ar
    28     9    10   ar
    29    30    31    1
    30    31    32    2
    31    31    33   am
    32    33    34    1
    33    33    35    1
    34    10     1   ar
    35    10     5   ar
    36    19    13   ar
    37    27    22   ar
    38    11    12    1
@<TRIPOS>MOLECULE
*****
 35 38 0 0 0
SMALL
GASTEIGER

@<TRIPOS>ATOM
      1 C         140.3334  139.3607  165.3191 C.ar    1  UNL1        0.1432
      2 C         139.5305  138.2550  164.7006 C.ar    1  UNL1        0.0371
      3 C         138.3994  137.6320  165.4638 C.ar    1  UNL1        0.0047
      4 C         138.0713  138.1147  166.8456 C.ar    1  UNL1        0.0195
      5 C         138.8742  139.2204  167.4641 C.ar    1  UNL1        0.0887
      6 N         138.5461  139.7032  168.8459 N.ar    1  UNL1       -0.2238
      7 C         139.3491  140.8089  169.4644 C.ar    1  UNL1        0.2000
      8 N         140.4801  141.4320  168.7011 N.ar    1  UNL1       -0.2088
      9 C         140.8083  140.9492  167.3194 C.ar    1  UNL1        0.1383
     10 C         140.0053  139.8434  166.7008 C.ar    1  UNL1        0.0833
     11 N         141.9393  141.5723  166.5561 N.pl3   1  UNL1       -0.2977
     12 H         142.8569  141.2353  166.6734 H       1  UNL1        0.1536
     13 C         141.6724  142.7087  165.6143 C.ar    1  UNL1        0.0504
     14 C         140.2816  143.2514  165.4688 C.ar    1  UNL1        0.0178
     15 C         140.0147  144.3879  164.5269 C.ar    1  UNL1        0.0391
     16 C         141.1385  144.9817  163.7305 C.ar    1  UNL1        0.1496
     17 C         142.5293  144.4390  163.8759 C.ar    1  UNL1        0.0928
     18 CL        143.6532  145.0328  163.0795 Cl      1  UNL1       -0.0790
     19 C         142.7963  143.3026  164.8178 C.ar    1  UNL1        0.0291
     20 O         140.8716  146.1181  162.7886 O.3     1  UNL1       -0.4681
     21 C         140.1526  145.8680  161.4961 C.3     1  UNL1        0.2508
     22 C         140.6095  144.7678  160.5845 C.ar    1  UNL1        0.1026
     23 C         139.6809  143.6390  160.2473 C.ar    1  UNL1        0.0185
     24 C         140.1377  142.5389  159.3358 C.ar    1  UNL1        0.0029
     25 C         141.5231  142.5675  158.7613 C.ar    1  UNL1        0.0207
     26 C         142.4516  143.6963  159.0985 C.ar    1  UNL1        0.0986
     27 N         141.9948  144.7965  160.0101 N.ar    1  UNL1       -0.2445
     28 O         141.4645  139.9838  164.5558 O.3     1  UNL1       -0.4698
     29 C         139.9230  140.9109  162.6812 C.3     1  UNL1        0.0574
     30 C         141.2633  140.4104  163.1320 C.3     1  UNL1        0.2413
     31 C         142.4024  140.3364  162.1587 C.2     1  UNL1        0.2660
     32 O         143.1758  141.5745  161.8140 O.2     1  UNL1       -0.2710
     33 N         142.7680  139.0244  161.5303 N.am    1  UNL1       -0.2731
     34 C         143.9071  138.9505  160.5571 C.3     1  UNL1        0.1150
     35 C         141.9946  137.7863  161.8751 C.3     1  UNL1        0.1150
@<TRIPOS>BOND
     1    30    29    1
     2    30    28    1
     3    28     1    1
     4     1     2   ar
     5     2     3   ar
     6     3     4   ar
     7     4     5   ar
     8     5     6   ar
     9     6     7   ar
    10     7     8   ar
    11     8     9   ar
    12     9    11    1
    13    11    13    1
    14    13    14   ar
    15    14    15   ar
    16    15    16   ar
    17    16    20    1
    18    20    21    1
    19    21    22    1
    20    22    23   ar
    21    23    24   ar
    22    24    25   ar
    23    25    26   ar
    24    26    27   ar
    25    16    17   ar
    26    17    18    1
    27    17    19   ar
    28     9    10   ar
    29    30    31    1
    30    31    32    2
    31    31    33   am
    32    33    34    1
    33    33    35    1
    34    10     1   ar
    35    10     5   ar
    36    19    13   ar
    37    27    22   ar
    38    11    12    1
@<TRIPOS>MOLECULE
*****
 35 38 0 0 0
SMALL
GASTEIGER

@<TRIPOS>ATOM
      1 C         140.4340  140.2937  167.9315 C.ar    1  UNL1        0.1432
      2 C         139.1361  139.8694  168.5524 C.ar    1  UNL1        0.0371
      3 C         138.7523  140.3784  169.9101 C.ar    1  UNL1        0.0047
      4 C         139.6664  141.3119  170.6471 C.ar    1  UNL1        0.0195
      5 C         140.9642  141.7362  170.0263 C.ar    1  UNL1        0.0887
      6 N         141.8784  142.6697  170.7632 N.ar    1  UNL1       -0.2238
      7 C         143.1762  143.0941  170.1424 C.ar    1  UNL1        0.2000
      8 N         143.5600  142.5850  168.7847 N.ar    1  UNL1       -0.2088
      9 C         142.6460  141.6516  168.0477 C.ar    1  UNL1        0.1383
     10 C         141.3480  141.2272  168.6685 C.ar    1  UNL1        0.0833
     11 N         143.0298  141.1425  166.6899 N.pl3   1  UNL1       -0.2977
     12 H         143.3262  140.2102  166.5795 H       1  UNL1        0.1536
     13 C         142.9619  142.0539  165.5005 C.ar    1  UNL1        0.0504
     14 C         141.9543  143.1645  165.4631 C.ar    1  UNL1        0.0178
     15 C         141.8865  144.0758  164.2736 C.ar    1  UNL1        0.0391
     16 C         142.8262  143.8766  163.1215 C.ar    1  UNL1        0.1496
     17 C         143.8337  142.7660  163.1589 C.ar    1  UNL1        0.0928
     18 CL        144.7734  142.5667  162.0069 Cl      1  UNL1       -0.0790
     19 C         143.9016  141.8546  164.3484 C.ar    1  UNL1        0.0291
     20 O         142.7583  144.7879  161.9321 O.3     1  UNL1       -0.4681
     21 C         141.4374  145.0761  161.2825 C.3     1  UNL1        0.2508
     22 C         140.2143  144.3144  161.6998 C.ar    1  UNL1        0.1026
     23 C         139.2129  144.9489  162.6188 C.ar    1  UNL1        0.0185
     24 C         137.9899  144.1873  163.0361 C.ar    1  UNL1        0.0029
     25 C         137.7683  142.7912  162.5343 C.ar    1  UNL1        0.0207
     26 C         138.7697  142.1568  161.6153 C.ar    1  UNL1        0.0986
     27 N         139.9927  142.9184  161.1980 N.ar    1  UNL1       -0.2445
     28 O         140.8178  139.7847  166.5738 O.3     1  UNL1       -0.4698
     29 C         138.9282  141.2081  165.4998 C.3     1  UNL1        0.0574
     30 C         140.0245  140.1929  165.3679 C.3     1  UNL1        0.2413
     31 C         140.3276  139.5858  164.0301 C.2     1  UNL1        0.2660
     32 O         141.2062  140.3151  163.0573 O.2     1  UNL1       -0.2710
     33 N         139.7521  138.2496  163.6651 N.am    1  UNL1       -0.2731
     34 C         140.0552  137.6426  162.3273 C.3     1  UNL1        0.1150
     35 C         138.8736  137.5203  164.6379 C.3     1  UNL1        0.1150
@<TRIPOS>BOND
     1    30    29    1
     2    30    28    1
     3    28     1    1
     4     1     2   ar
     5     2     3   ar
     6     3     4   ar
     7     4     5   ar
     8     5     6   ar
     9     6     7   ar
    10     7     8   ar
    11     8     9   ar
    12     9    11    1
    13    11    13    1
    14    13    14   ar
    15    14    15   ar
    16    15    16   ar
    17    16    20    1
    18    20    21    1
    19    21    22    1
    20    22    23   ar
    21    23    24   ar
    22    24    25   ar
    23    25    26   ar
    24    26    27   ar
    25    16    17   ar
    26    17    18    1
    27    17    19   ar
    28     9    10   ar
    29    30    31    1
    30    31    32    2
    31    31    33   am
    32    33    34    1
    33    33    35    1
    34    10     1   ar
    35    10     5   ar
    36    19    13   ar
    37    27    22   ar
    38    11    12    1
@<TRIPOS>MOLECULE
*****
 35 38 0 0 0
SMALL
GASTEIGER

@<TRIPOS>ATOM
      1 C         143.8542  141.1954  159.8327 C.ar    1  UNL1        0.1432
      2 C         144.0178  142.4664  159.0530 C.ar    1  UNL1        0.0371
      3 C         143.8226  142.4643  157.5658 C.ar    1  UNL1        0.0047
      4 C         143.4639  141.1913  156.8582 C.ar    1  UNL1        0.0195
      5 C         143.3003  139.9204  157.6378 C.ar    1  UNL1        0.0887
      6 N         142.9416  138.6473  156.9302 N.ar    1  UNL1       -0.2238
      7 C         142.7781  137.3763  157.7098 C.ar    1  UNL1        0.2000
      8 N         142.9733  137.3783  159.1970 N.ar    1  UNL1       -0.2088
      9 C         143.3320  138.6513  159.9047 C.ar    1  UNL1        0.1383
     10 C         143.4955  139.9224  159.1250 C.ar    1  UNL1        0.0833
     11 N         143.5272  138.6534  161.3919 N.pl3   1  UNL1       -0.2977
     12 H         144.4136  138.8514  161.7718 H       1  UNL1        0.1536
     13 C         142.3719  138.3537  162.3004 C.ar    1  UNL1        0.0504
     14 C         142.6099  138.1103  163.7612 C.ar    1  UNL1        0.0178
     15 C         141.4545  137.8107  164.6697 C.ar    1  UNL1        0.0391
     16 C         140.0611  137.7544  164.1173 C.ar    1  UNL1        0.1496
     17 C         139.8230  137.9979  162.6565 C.ar    1  UNL1        0.0928
     18 CL        138.4296  137.9416  162.1041 Cl      1  UNL1       -0.0790
     19 C         140.9783  138.2975  161.7480 C.ar    1  UNL1        0.0291
     20 O         138.9058  137.4548  165.0258 O.3     1  UNL1       -0.4681
     21 C         138.3519  138.5291  165.9142 C.3     1  UNL1        0.2508
     22 C         138.6459  139.9705  165.6207 C.ar    1  UNL1        0.1026
     23 C         139.6839  140.7019  166.4193 C.ar    1  UNL1        0.0185
     24 C         139.9779  142.1432  166.1259 C.ar    1  UNL1        0.0029
     25 C         139.2339  142.8531  165.0340 C.ar    1  UNL1        0.0207
     26 C         138.1960  142.1218  164.2354 C.ar    1  UNL1        0.0986
     27 N         137.9020  140.6805  164.5288 N.ar    1  UNL1       -0.2445
     28 O         144.0494  141.1974  161.3199 O.3     1  UNL1       -0.4698
     29 C         141.7144  141.9665  162.1602 C.3     1  UNL1        0.0574
     30 C         143.2092  142.0889  162.1854 C.3     1  UNL1        0.2413
     31 C         143.8637  143.1029  163.0762 C.2     1  UNL1        0.2660
     32 O         144.3108  144.4191  162.5124 O.2     1  UNL1       -0.2710
     33 N         144.0712  142.8008  164.5307 N.am    1  UNL1       -0.2731
     34 C         144.7257  143.8148  165.4215 C.3     1  UNL1        0.1150
     35 C         143.6241  141.4846  165.0945 C.3     1  UNL1        0.1150
@<TRIPOS>BOND
     1    30    29    1
     2    30    28    1
     3    28     1    1
     4     1     2   ar
     5     2     3   ar
     6     3     4   ar
     7     4     5   ar
     8     5     6   ar
     9     6     7   ar
    10     7     8   ar
    11     8     9   ar
    12     9    11    1
    13    11    13    1
    14    13    14   ar
    15    14    15   ar
    16    15    16   ar
    17    16    20    1
    18    20    21    1
    19    21    22    1
    20    22    23   ar
    21    23    24   ar
    22    24    25   ar
    23    25    26   ar
    24    26    27   ar
    25    16    17   ar
    26    17    18    1
    27    17    19   ar
    28     9    10   ar
    29    30    31    1
    30    31    32    2
    31    31    33   am
    32    33    34    1
    33    33    35    1
    34    10     1   ar
    35    10     5   ar
    36    19    13   ar
    37    27    22   ar
    38    11    12    1
@<TRIPOS>MOLECULE
*****
 35 38 0 0 0
SMALL
GASTEIGER

@<TRIPOS>ATOM
      1 C         141.2782  143.2566  163.3669 C.ar    1  UNL1        0.1432
      2 C         141.6212  144.7154  163.3033 C.ar    1  UNL1        0.0371
      3 C         143.0251  145.1429  162.9928 C.ar    1  UNL1        0.0047
      4 C         144.0859  144.1115  162.7460 C.ar    1  UNL1        0.0195
      5 C         143.7428  142.6527  162.8096 C.ar    1  UNL1        0.0887
      6 N         144.8037  141.6213  162.5628 N.ar    1  UNL1       -0.2238
      7 C         144.4606  140.1624  162.6264 C.ar    1  UNL1        0.2000
      8 N         143.0567  139.7350  162.9369 N.ar    1  UNL1       -0.2088
      9 C         141.9959  140.7663  163.1837 C.ar    1  UNL1        0.1383
     10 C         142.3390  142.2252  163.1201 C.ar    1  UNL1        0.0833
     11 N         140.5920  140.3389  163.4942 N.pl3   1  UNL1       -0.2977
     12 H         139.9488  140.1932  162.7633 H       1  UNL1        0.1536
     13 C         140.1682  140.1334  164.9183 C.ar    1  UNL1        0.0504
     14 C         140.9520  140.7617  166.0322 C.ar    1  UNL1        0.0178
     15 C         140.5281  140.5562  167.4564 C.ar    1  UNL1        0.0391
     16 C         139.3205  139.7224  167.7666 C.ar    1  UNL1        0.1496
     17 C         138.5367  139.0940  166.6526 C.ar    1  UNL1        0.0928
     18 CL        137.3290  138.2602  166.9628 Cl      1  UNL1       -0.0790
     19 C         138.9605  139.2995  165.2286 C.ar    1  UNL1        0.0291
     20 O         138.8966  139.5169  169.1907 O.3     1  UNL1       -0.4681
     21 C         138.9177  140.6674  170.1529 C.3     1  UNL1        0.2508
     22 C         140.1370  141.5348  170.2583 C.ar    1  UNL1        0.1026
     23 C         140.0483  142.9961  169.9319 C.ar    1  UNL1        0.0185
     24 C         141.2675  143.8635  170.0373 C.ar    1  UNL1        0.0029
     25 C         142.5754  143.2695  170.4691 C.ar    1  UNL1        0.0207
     26 C         142.6641  141.8081  170.7955 C.ar    1  UNL1        0.0986
     27 N         141.4449  140.9408  170.6901 N.ar    1  UNL1       -0.2445
     28 O         139.8743  142.8291  163.6774 O.3     1  UNL1       -0.4698
     29 C         138.0193  144.5371  163.0517 C.3     1  UNL1        0.0574
     30 C         138.7464  143.2527  162.7840 C.3     1  UNL1        0.2413
     31 C         138.3455  142.3920  161.6227 C.2     1  UNL1        0.2660
     32 O         137.3835  141.2591  161.8257 O.2     1  UNL1       -0.2710
     33 N         138.9066  142.6640  160.2585 N.am    1  UNL1       -0.2731
     34 C         138.5057  141.8032  159.0973 C.3     1  UNL1        0.1150
     35 C         139.8686  143.7968  160.0555 C.3     1  UNL1        0.1150
@<TRIPOS>BOND
     1    30    29    1
     2    30    28    1
     3    28     1    1
     4     1     2   ar
     5     2     3   ar
     6     3     4   ar
     7     4     5   ar
     8     5     6   ar
     9     6     7   ar
    10     7     8   ar
    11     8     9   ar
    12     9    11    1
    13    11    13    1
    14    13    14   ar
    15    14    15   ar
    16    15    16   ar
    17    16    20    1
    18    20    21    1
    19    21    22    1
    20    22    23   ar
    21    23    24   ar
    22    24    25   ar
    23    25    26   ar
    24    26    27   ar
    25    16    17   ar
    26    17    18    1
    27    17    19   ar
    28     9    10   ar
    29    30    31    1
    30    31    32    2
    31    31    33   am
    32    33    34    1
    33    33    35    1
    34    10     1   ar
    35    10     5   ar
    36    19    13   ar
    37    27    22   ar
    38    11    12    1
