@<TRIPOS>MOLECULE
*****
 31 34 0 0 0
SMALL
GASTEIGER

@<TRIPOS>ATOM
      1 C         138.6648  139.8289  158.8666 C.ar    1  UNL1        0.0660
      2 C         139.8679  138.9954  159.1951 C.ar    1  UNL1        0.0174
      3 C         140.4036  138.9710  160.5960 C.ar    1  UNL1        0.0201
      4 C         139.7362  139.7800  161.6683 C.ar    1  UNL1        0.0787
      5 C         138.5332  140.6135  161.3399 C.ar    1  UNL1        0.0996
      6 C         137.9975  140.6379  159.9390 C.ar    1  UNL1        0.0364
      7 N         138.0890  141.3019  162.5965 N.ar    1  UNL1       -0.2309
      8 C         139.0176  140.8938  163.7015 C.ar    1  UNL1        0.1207
      9 N         140.0356  139.9533  163.1279 N.ar    1  UNL1       -0.3135
     10 C         141.1038  139.3760  164.0087 C.3     1  UNL1        0.1229
     11 C         141.1540  139.7394  165.4633 C.3     1  UNL1        0.0783
     12 N         142.2221  139.1622  166.3441 N.3     1  UNL1       -0.3204
     13 C         140.1360  140.6800  166.0369 C.3     1  UNL1        0.0482
     14 C         139.0678  141.2572  165.1559 C.3     1  UNL1        0.0698
     15 H         142.8225  138.5487  165.7931 H       1  UNL1        0.1189
     16 H         141.7895  138.6276  167.0974 H       1  UNL1        0.1189
     17 C         140.1861  141.0434  167.4913 C.ar    1  UNL1        0.0091
     18 C         141.0555  142.1756  167.9520 C.ar    1  UNL1        0.0300
     19 C         141.1057  142.5390  169.4064 C.ar    1  UNL1        0.1672
     20 F         141.9751  143.6712  169.8671 F       1  UNL1       -0.2018
     21 C         140.2864  141.7701  170.4002 C.ar    1  UNL1        0.1696
     22 F         140.3365  142.1335  171.8546 F       1  UNL1       -0.2017
     23 C         139.4170  140.6379  169.9395 C.ar    1  UNL1        0.0612
     24 C         139.3668  140.2745  168.4851 C.ar    1  UNL1        0.1386
     25 F         138.4974  139.1423  168.0244 F       1  UNL1       -0.2044
     26 N         138.1291  139.8534  157.4657 N.pl3   1  UNL1       -0.2187
     27 H         138.1503  139.0367  156.9163 H       1  UNL1        0.1734
     28 C         136.9932  142.3908  156.3382 C.3     1  UNL1        0.1996
     29 S         137.5612  141.1220  156.9020 S.O2    1  UNL1        0.0558
     30 O         138.9401  141.7080  156.8314 O.2     1  UNL1       -0.1544
     31 O         136.1822  140.5361  156.9726 O.2     1  UNL1       -0.1544
@<TRIPOS>BOND
     1    28    29    1
     2    29    30    2
     3    29    31    2
     4    29    26    1
     5    26     1    1
     6     1     2   ar
     7     2     3   ar
     8     3     4   ar
     9     4     5   ar
    10     5     6   ar
    11     5     7   ar
    12     7     8   ar
    13     8     9   ar
    14     9    10    1
    15    10    11    1
    16    11    12    1
    17    11    13    1
    18    13    17    1
    19    17    18   ar
    20    18    19   ar
    21    19    20    1
    22    19    21   ar
    23    21    22    1
    24    21    23   ar
    25    23    24   ar
    26    24    25    1
    27    13    14    1
    28     6     1   ar
    29    14     8    1
    30     9     4   ar
    31    24    17   ar
    32    26    27    1
    33    12    15    1
    34    12    16    1
@<TRIPOS>MOLECULE
*****
 31 34 0 0 0
SMALL
GASTEIGER

@<TRIPOS>ATOM
      1 C         140.5437  144.9056  159.4832 C.ar    1  UNL1        0.0660
      2 C         140.9627  143.4741  159.3253 C.ar    1  UNL1        0.0174
      3 C         141.1156  142.5996  160.5344 C.ar    1  UNL1        0.0201
      4 C         140.8493  143.1567  161.9014 C.ar    1  UNL1        0.0787
      5 C         140.4303  144.5883  162.0593 C.ar    1  UNL1        0.0996
      6 C         140.2774  145.4627  160.8502 C.ar    1  UNL1        0.0364
      7 N         140.2385  144.8565  163.5227 N.ar    1  UNL1       -0.2309
      8 C         140.5390  143.5906  164.2691 C.ar    1  UNL1        0.1207
      9 N         140.9165  142.5401  163.2672 N.ar    1  UNL1       -0.3135
     10 C         141.2728  141.1578  163.7278 C.3     1  UNL1        0.1229
     11 C         141.2515  140.8259  165.1906 C.3     1  UNL1        0.0783
     12 N         141.6077  139.4436  165.6513 N.3     1  UNL1       -0.3204
     13 C         140.8739  141.8764  166.1926 C.3     1  UNL1        0.0482
     14 C         140.5177  143.2588  165.7318 C.3     1  UNL1        0.0698
     15 H         141.8361  138.8642  164.8434 H       1  UNL1        0.1189
     16 H         140.8158  139.0363  166.1487 H       1  UNL1        0.1189
     17 C         140.8526  141.5446  167.6552 C.ar    1  UNL1        0.0091
     18 C         139.6424  140.8964  168.2597 C.ar    1  UNL1        0.0300
     19 C         139.6211  140.5646  169.7224 C.ar    1  UNL1        0.1672
     20 F         138.4109  139.9165  170.3268 F       1  UNL1       -0.2018
     21 C         140.8100  140.8809  170.5805 C.ar    1  UNL1        0.1696
     22 F         140.7887  140.5490  172.0432 F       1  UNL1       -0.2017
     23 C         142.0202  141.5290  169.9761 C.ar    1  UNL1        0.0612
     24 C         142.0415  141.8608  168.5134 C.ar    1  UNL1        0.1386
     25 F         143.2517  142.5089  167.9089 F       1  UNL1       -0.2044
     26 N         140.3908  145.7801  158.2741 N.pl3   1  UNL1       -0.2187
     27 H         139.7158  146.4967  158.2670 H       1  UNL1        0.1734
     28 C         142.1420  145.3453  155.8773 C.3     1  UNL1        0.1996
     29 S         141.2664  145.5627  157.0757 S.O2    1  UNL1        0.0558
     30 O         142.4278  146.1559  157.8167 O.2     1  UNL1       -0.1544
     31 O         140.1049  144.9694  156.3348 O.2     1  UNL1       -0.1544
@<TRIPOS>BOND
     1    28    29    1
     2    29    30    2
     3    29    31    2
     4    29    26    1
     5    26     1    1
     6     1     2   ar
     7     2     3   ar
     8     3     4   ar
     9     4     5   ar
    10     5     6   ar
    11     5     7   ar
    12     7     8   ar
    13     8     9   ar
    14     9    10    1
    15    10    11    1
    16    11    12    1
    17    11    13    1
    18    13    17    1
    19    17    18   ar
    20    18    19   ar
    21    19    20    1
    22    19    21   ar
    23    21    22    1
    24    21    23   ar
    25    23    24   ar
    26    24    25    1
    27    13    14    1
    28     6     1   ar
    29    14     8    1
    30     9     4   ar
    31    24    17   ar
    32    26    27    1
    33    12    15    1
    34    12    16    1
@<TRIPOS>MOLECULE
*****
 31 34 0 0 0
SMALL
GASTEIGER

@<TRIPOS>ATOM
      1 C         141.9549  138.3782  158.9349 C.ar    1  UNL1        0.0660
      2 C         142.9728  137.5870  159.7015 C.ar    1  UNL1        0.0174
      3 C         143.0957  137.7617  161.1862 C.ar    1  UNL1        0.0201
      4 C         142.2006  138.7278  161.9043 C.ar    1  UNL1        0.0787
      5 C         141.1827  139.5190  161.1376 C.ar    1  UNL1        0.0996
      6 C         141.0599  139.3442  159.6529 C.ar    1  UNL1        0.0364
      7 N         140.4441  140.3900  162.1103 N.ar    1  UNL1       -0.2309
      8 C         141.0056  140.1370  163.4780 C.ar    1  UNL1        0.1207
      9 N         142.0912  139.1097  163.3507 N.ar    1  UNL1       -0.3135
     10 C         142.8398  138.6547  164.5683 C.3     1  UNL1        0.1229
     11 C         142.5028  139.2271  165.9133 C.3     1  UNL1        0.0783
     12 N         143.2515  138.7721  167.1309 N.3     1  UNL1       -0.3204
     13 C         141.4173  140.2544  166.0406 C.3     1  UNL1        0.0482
     14 C         140.6686  140.7094  164.8229 C.3     1  UNL1        0.0698
     15 H         143.9477  138.0769  166.8619 H       1  UNL1        0.1189
     16 H         142.5985  138.3594  167.7970 H       1  UNL1        0.1189
     17 C         141.0803  140.8267  167.3856 C.ar    1  UNL1        0.0091
     18 C         139.8967  140.3072  168.1466 C.ar    1  UNL1        0.0300
     19 C         139.5598  140.8795  169.4915 C.ar    1  UNL1        0.1672
     20 F         138.3762  140.3599  170.2526 F       1  UNL1       -0.2018
     21 C         140.4064  141.9714  170.0754 C.ar    1  UNL1        0.1696
     22 F         140.0694  142.5438  171.4203 F       1  UNL1       -0.2017
     23 C         141.5900  142.4910  169.3143 C.ar    1  UNL1        0.0612
     24 C         141.9269  141.9187  167.9694 C.ar    1  UNL1        0.1386
     25 F         143.1105  142.4383  167.2084 F       1  UNL1       -0.2044
     26 N         141.8320  138.2034  157.4502 N.pl3   1  UNL1       -0.2187
     27 H         141.1062  138.6531  156.9600 H       1  UNL1        0.1734
     28 C         143.7979  136.4836  155.9744 C.3     1  UNL1        0.1996
     29 S         142.8149  137.3435  156.7123 S.O2    1  UNL1        0.0558
     30 O         143.7859  138.4861  156.6742 O.2     1  UNL1       -0.1544
     31 O         141.8439  136.2009  156.7504 O.2     1  UNL1       -0.1544
@<TRIPOS>BOND
     1    28    29    1
     2    29    30    2
     3    29    31    2
     4    29    26    1
     5    26     1    1
     6     1     2   ar
     7     2     3   ar
     8     3     4   ar
     9     4     5   ar
    10     5     6   ar
    11     5     7   ar
    12     7     8   ar
    13     8     9   ar
    14     9    10    1
    15    10    11    1
    16    11    12    1
    17    11    13    1
    18    13    17    1
    19    17    18   ar
    20    18    19   ar
    21    19    20    1
    22    19    21   ar
    23    21    22    1
    24    21    23   ar
    25    23    24   ar
    26    24    25    1
    27    13    14    1
    28     6     1   ar
    29    14     8    1
    30     9     4   ar
    31    24    17   ar
    32    26    27    1
    33    12    15    1
    34    12    16    1
@<TRIPOS>MOLECULE
*****
 31 34 0 0 0
SMALL
GASTEIGER

@<TRIPOS>ATOM
      1 C         140.1707  141.4508  168.7913 C.ar    1  UNL1        0.0660
      2 C         139.4277  140.1509  168.7002 C.ar    1  UNL1        0.0174
      3 C         139.0817  139.5773  167.3581 C.ar    1  UNL1        0.0201
      4 C         139.4787  140.3035  166.1071 C.ar    1  UNL1        0.0787
      5 C         140.2216  141.6033  166.1982 C.ar    1  UNL1        0.0996
      6 C         140.5677  142.1769  167.5403 C.ar    1  UNL1        0.0364
      7 N         140.4793  142.0888  164.8025 N.ar    1  UNL1       -0.2309
      8 C         139.8955  141.0890  163.8488 C.ar    1  UNL1        0.1207
      9 N         139.2771  139.9856  164.6551 N.ar    1  UNL1       -0.3135
     10 C         138.6103  138.8339  163.9630 C.3     1  UNL1        0.1229
     11 C         138.5619  138.7856  162.4645 C.3     1  UNL1        0.0783
     12 N         137.8951  137.6339  161.7724 N.3     1  UNL1       -0.3204
     13 C         139.1803  139.8890  161.6582 C.3     1  UNL1        0.0482
     14 C         139.8471  141.0407  162.3504 C.3     1  UNL1        0.0698
     15 H         137.5330  136.9824  162.4686 H       1  UNL1        0.1189
     16 H         138.5727  137.1554  161.1789 H       1  UNL1        0.1189
     17 C         139.1319  139.8408  160.1598 C.ar    1  UNL1        0.0091
     18 C         138.1002  140.6367  159.4167 C.ar    1  UNL1        0.0300
     19 C         138.0518  140.5885  157.9182 C.ar    1  UNL1        0.1672
     20 F         137.0202  141.3845  157.1751 F       1  UNL1       -0.2018
     21 C         139.0351  139.7442  157.1629 C.ar    1  UNL1        0.1696
     22 F         138.9867  139.6960  155.6645 F       1  UNL1       -0.2017
     23 C         140.0667  138.9482  157.9060 C.ar    1  UNL1        0.0612
     24 C         140.1151  138.9965  159.4045 C.ar    1  UNL1        0.1386
     25 F         141.1467  138.2005  160.1476 F       1  UNL1       -0.2044
     26 N         140.5167  142.0244  170.1334 N.pl3   1  UNL1       -0.2187
     27 H         139.8544  142.0074  170.8616 H       1  UNL1        0.1734
     28 C         143.2270  143.2236  170.5986 C.3     1  UNL1        0.1996
     29 S         141.8718  142.6240  170.3660 S.O2    1  UNL1        0.0558
     30 O         142.4751  141.2509  170.3907 O.2     1  UNL1       -0.1544
     31 O         141.2685  143.9971  170.3413 O.2     1  UNL1       -0.1544
@<TRIPOS>BOND
     1    28    29    1
     2    29    30    2
     3    29    31    2
     4    29    26    1
     5    26     1    1
     6     1     2   ar
     7     2     3   ar
     8     3     4   ar
     9     4     5   ar
    10     5     6   ar
    11     5     7   ar
    12     7     8   ar
    13     8     9   ar
    14     9    10    1
    15    10    11    1
    16    11    12    1
    17    11    13    1
    18    13    17    1
    19    17    18   ar
    20    18    19   ar
    21    19    20    1
    22    19    21   ar
    23    21    22    1
    24    21    23   ar
    25    23    24   ar
    26    24    25    1
    27    13    14    1
    28     6     1   ar
    29    14     8    1
    30     9     4   ar
    31    24    17   ar
    32    26    27    1
    33    12    15    1
    34    12    16    1
@<TRIPOS>MOLECULE
*****
 31 34 0 0 0
SMALL
GASTEIGER

@<TRIPOS>ATOM
      1 C         139.3748  140.1094  167.9246 C.ar    1  UNL1        0.0660
      2 C         138.6308  139.2667  166.9315 C.ar    1  UNL1        0.0174
      3 C         138.7021  139.5922  165.4690 C.ar    1  UNL1        0.0201
      4 C         139.5175  140.7604  164.9995 C.ar    1  UNL1        0.0787
      5 C         140.2615  141.6031  165.9926 C.ar    1  UNL1        0.0996
      6 C         140.1902  141.2776  167.4551 C.ar    1  UNL1        0.0364
      7 N         140.9784  142.6837  165.2386 N.ar    1  UNL1       -0.2309
      8 C         140.6773  142.5089  163.7796 C.ar    1  UNL1        0.1207
      9 N         139.7745  141.3201  163.6318 N.ar    1  UNL1       -0.3135
     10 C         139.3029  140.9010  162.2710 C.3     1  UNL1        0.1229
     11 C         139.7343  141.6706  161.0578 C.3     1  UNL1        0.0783
     12 N         139.2628  141.2514  159.6969 N.3     1  UNL1       -0.3204
     13 C         140.6372  142.8593  161.2055 C.3     1  UNL1        0.0482
     14 C         141.1087  143.2784  162.5665 C.3     1  UNL1        0.0698
     15 H         138.6621  140.4316  159.7828 H       1  UNL1        0.1189
     16 H         140.0678  141.0235  159.1134 H       1  UNL1        0.1189
     17 C         141.0685  143.6289  159.9924 C.ar    1  UNL1        0.0091
     18 C         140.2206  144.7539  159.4772 C.ar    1  UNL1        0.0300
     19 C         140.6520  145.5235  158.2641 C.ar    1  UNL1        0.1672
     20 F         139.8040  146.6485  157.7489 F       1  UNL1       -0.2018
     21 C         141.9312  145.1680  157.5662 C.ar    1  UNL1        0.1696
     22 F         142.3626  145.9376  156.3531 F       1  UNL1       -0.2017
     23 C         142.7792  144.0430  158.0814 C.ar    1  UNL1        0.0612
     24 C         142.3478  143.2734  159.2945 C.ar    1  UNL1        0.1386
     25 F         143.1957  142.1484  159.8097 F       1  UNL1       -0.2044
     26 N         139.3035  139.7839  169.3871 N.pl3   1  UNL1       -0.2187
     27 H         138.6362  139.1390  169.7159 H       1  UNL1        0.1734
     28 C         141.1942  141.0980  171.3102 C.3     1  UNL1        0.1996
     29 S         140.2488  140.4409  170.3486 S.O2    1  UNL1        0.0558
     30 O         139.2234  141.4976  170.6348 O.2     1  UNL1       -0.1544
     31 O         141.2743  139.3843  170.0625 O.2     1  UNL1       -0.1544
@<TRIPOS>BOND
     1    28    29    1
     2    29    30    2
     3    29    31    2
     4    29    26    1
     5    26     1    1
     6     1     2   ar
     7     2     3   ar
     8     3     4   ar
     9     4     5   ar
    10     5     6   ar
    11     5     7   ar
    12     7     8   ar
    13     8     9   ar
    14     9    10    1
    15    10    11    1
    16    11    12    1
    17    11    13    1
    18    13    17    1
    19    17    18   ar
    20    18    19   ar
    21    19    20    1
    22    19    21   ar
    23    21    22    1
    24    21    23   ar
    25    23    24   ar
    26    24    25    1
    27    13    14    1
    28     6     1   ar
    29    14     8    1
    30     9     4   ar
    31    24    17   ar
    32    26    27    1
    33    12    15    1
    34    12    16    1
@<TRIPOS>MOLECULE
*****
 31 34 0 0 0
SMALL
GASTEIGER

@<TRIPOS>ATOM
      1 C         143.1436  138.5954  158.5708 C.ar    1  UNL1        0.0660
      2 C         143.4198  140.0475  158.8259 C.ar    1  UNL1        0.0174
      3 C         143.2125  140.6209  160.1963 C.ar    1  UNL1        0.0201
      4 C         142.7291  139.7423  161.3118 C.ar    1  UNL1        0.0787
      5 C         142.4529  138.2902  161.0567 C.ar    1  UNL1        0.0996
      6 C         142.6602  137.7168  159.6863 C.ar    1  UNL1        0.0364
      7 N         141.9883  137.6738  162.3430 N.ar    1  UNL1       -0.2309
      8 C         141.9773  138.7451  163.3929 C.ar    1  UNL1        0.1207
      9 N         142.4351  140.0234  162.7556 N.ar    1  UNL1       -0.3135
     10 C         142.5253  141.2784  163.5723 C.3     1  UNL1        0.1229
     11 C         142.1575  141.2550  165.0264 C.3     1  UNL1        0.0783
     12 N         142.2476  142.5099  165.8431 N.3     1  UNL1       -0.3204
     13 C         141.6997  139.9766  165.6637 C.3     1  UNL1        0.0482
     14 C         141.6096  138.7216  164.8469 C.3     1  UNL1        0.0698
     15 H         142.5737  143.2762  165.2541 H       1  UNL1        0.1189
     16 H         142.9033  142.3690  166.6116 H       1  UNL1        0.1189
     17 C         141.3319  139.9531  167.1177 C.ar    1  UNL1        0.0091
     18 C         142.3713  139.6274  168.1490 C.ar    1  UNL1        0.0300
     19 C         142.0036  139.6040  169.6031 C.ar    1  UNL1        0.1672
     20 F         143.0429  139.2783  170.6344 F       1  UNL1       -0.2018
     21 C         140.5964  139.9062  170.0257 C.ar    1  UNL1        0.1696
     22 F         140.2287  139.8828  171.4797 F       1  UNL1       -0.2017
     23 C         139.5571  140.2319  168.9944 C.ar    1  UNL1        0.0612
     24 C         139.9248  140.2554  167.5404 C.ar    1  UNL1        0.1386
     25 F         138.8854  140.5810  166.5090 F       1  UNL1       -0.2044
     26 N         143.3509  138.0219  157.2004 N.pl3   1  UNL1       -0.2187
     27 H         144.1675  138.2380  156.6947 H       1  UNL1        0.1734
     28 C         141.2771  136.2166  156.0003 C.3     1  UNL1        0.1996
     29 S         142.3140  137.1193  156.6004 S.O2    1  UNL1        0.0558
     30 O         143.2524  135.9561  156.7286 O.2     1  UNL1       -0.1544
     31 O         141.3757  138.2825  156.4721 O.2     1  UNL1       -0.1544
@<TRIPOS>BOND
     1    28    29    1
     2    29    30    2
     3    29    31    2
     4    29    26    1
     5    26     1    1
     6     1     2   ar
     7     2     3   ar
     8     3     4   ar
     9     4     5   ar
    10     5     6   ar
    11     5     7   ar
    12     7     8   ar
    13     8     9   ar
    14     9    10    1
    15    10    11    1
    16    11    12    1
    17    11    13    1
    18    13    17    1
    19    17    18   ar
    20    18    19   ar
    21    19    20    1
    22    19    21   ar
    23    21    22    1
    24    21    23   ar
    25    23    24   ar
    26    24    25    1
    27    13    14    1
    28     6     1   ar
    29    14     8    1
    30     9     4   ar
    31    24    17   ar
    32    26    27    1
    33    12    15    1
    34    12    16    1
@<TRIPOS>MOLECULE
*****
 31 34 0 0 0
SMALL
GASTEIGER

@<TRIPOS>ATOM
      1 C         141.7558  137.9727  157.2862 C.ar    1  UNL1        0.0660
      2 C         140.3556  138.5095  157.2564 C.ar    1  UNL1        0.0174
      3 C         139.7136  139.0006  158.5200 C.ar    1  UNL1        0.0201
      4 C         140.4719  138.9549  159.8134 C.ar    1  UNL1        0.0787
      5 C         141.8722  138.4180  159.8431 C.ar    1  UNL1        0.0996
      6 C         142.5142  137.9269  158.5795 C.ar    1  UNL1        0.0364
      7 N         142.3689  138.4967  161.2564 N.ar    1  UNL1       -0.2309
      8 C         141.2755  139.0821  162.1000 C.ar    1  UNL1        0.1207
      9 N         140.1031  139.3653  161.2082 N.ar    1  UNL1       -0.3135
     10 C         138.8512  139.9603  161.7814 C.3     1  UNL1        0.1229
     11 C         138.7716  140.2722  163.2465 C.3     1  UNL1        0.0783
     12 N         137.5197  140.8672  163.8198 N.3     1  UNL1       -0.3204
     13 C         139.9440  139.9890  164.1384 C.3     1  UNL1        0.0482
     14 C         141.1960  139.3940  163.5651 C.3     1  UNL1        0.0698
     15 H         136.8314  140.9915  163.0773 H       1  UNL1        0.1189
     16 H         137.7343  141.7718  164.2393 H       1  UNL1        0.1189
     17 C         139.8645  140.3009  165.6034 C.ar    1  UNL1        0.0091
     18 C         140.4835  141.5586  166.1372 C.ar    1  UNL1        0.0300
     19 C         140.4039  141.8705  167.6023 C.ar    1  UNL1        0.1672
     20 F         141.0229  143.1282  168.1360 F       1  UNL1       -0.2018
     21 C         139.7054  140.9246  168.5335 C.ar    1  UNL1        0.1696
     22 F         139.6258  141.2364  169.9986 F       1  UNL1       -0.2017
     23 C         139.0864  139.6668  167.9997 C.ar    1  UNL1        0.0612
     24 C         139.1659  139.3550  166.5347 C.ar    1  UNL1        0.1386
     25 F         138.5469  138.0972  166.0009 F       1  UNL1       -0.2044
     26 N         142.3978  137.4815  156.0226 N.pl3   1  UNL1       -0.2187
     27 H         142.3286  138.0128  155.1966 H       1  UNL1        0.1734
     28 C         143.8927  134.8805  156.0123 C.3     1  UNL1        0.1996
     29 S         143.1452  136.1811  156.0174 S.O2    1  UNL1        0.0558
     30 O         144.4295  136.9201  155.7840 O.2     1  UNL1       -0.1544
     31 O         141.8610  135.4421  156.2509 O.2     1  UNL1       -0.1544
@<TRIPOS>BOND
     1    28    29    1
     2    29    30    2
     3    29    31    2
     4    29    26    1
     5    26     1    1
     6     1     2   ar
     7     2     3   ar
     8     3     4   ar
     9     4     5   ar
    10     5     6   ar
    11     5     7   ar
    12     7     8   ar
    13     8     9   ar
    14     9    10    1
    15    10    11    1
    16    11    12    1
    17    11    13    1
    18    13    17    1
    19    17    18   ar
    20    18    19   ar
    21    19    20    1
    22    19    21   ar
    23    21    22    1
    24    21    23   ar
    25    23    24   ar
    26    24    25    1
    27    13    14    1
    28     6     1   ar
    29    14     8    1
    30     9     4   ar
    31    24    17   ar
    32    26    27    1
    33    12    15    1
    34    12    16    1
@<TRIPOS>MOLECULE
*****
 31 34 0 0 0
SMALL
GASTEIGER

@<TRIPOS>ATOM
      1 C         144.4038  142.0531  158.4193 C.ar    1  UNL1        0.0660
      2 C         144.1555  140.5738  158.4142 C.ar    1  UNL1        0.0174
      3 C         143.6567  139.8927  159.6541 C.ar    1  UNL1        0.0201
      4 C         143.4061  140.6909  160.8991 C.ar    1  UNL1        0.0787
      5 C         143.6544  142.1702  160.9042 C.ar    1  UNL1        0.0996
      6 C         144.1532  142.8512  159.6643 C.ar    1  UNL1        0.0364
      7 N         143.3196  142.6917  162.2703 N.ar    1  UNL1       -0.2309
      8 C         142.8645  141.5347  163.1094 C.ar    1  UNL1        0.1207
      9 N         142.9179  140.2981  162.2619 N.ar    1  UNL1       -0.3135
     10 C         142.5152  138.9742  162.8407 C.3     1  UNL1        0.1229
     11 C         142.0589  138.8868  164.2670 C.3     1  UNL1        0.0783
     12 N         141.6561  137.5629  164.8458 N.3     1  UNL1       -0.3204
     13 C         142.0055  140.1233  165.1145 C.3     1  UNL1        0.0482
     14 C         142.4083  141.4473  164.5356 C.3     1  UNL1        0.0698
     15 H         141.7535  136.8375  164.1354 H       1  UNL1        0.1189
     16 H         140.6851  137.6081  165.1547 H       1  UNL1        0.1189
     17 C         141.5492  140.0360  166.5407 C.ar    1  UNL1        0.0091
     18 C         142.5451  139.7772  167.6322 C.ar    1  UNL1        0.0300
     19 C         142.0888  139.6898  169.0585 C.ar    1  UNL1        0.1672
     20 F         143.0847  139.4310  170.1500 F       1  UNL1       -0.2018
     21 C         140.6368  139.8612  169.3932 C.ar    1  UNL1        0.1696
     22 F         140.1805  139.7738  170.8195 F       1  UNL1       -0.2017
     23 C         139.6409  140.1200  168.3017 C.ar    1  UNL1        0.0612
     24 C         140.0971  140.2074  166.8755 C.ar    1  UNL1        0.1386
     25 F         139.1013  140.4662  165.7840 F       1  UNL1       -0.2044
     26 N         144.9026  142.7341  157.1794 N.pl3   1  UNL1       -0.2187
     27 H         144.4185  143.5104  156.8156 H       1  UNL1        0.1734
     28 C         147.3753  141.7310  155.8084 C.3     1  UNL1        0.1996
     29 S         146.1389  142.2326  156.4940 S.O2    1  UNL1        0.0558
     30 O         145.2974  141.6739  155.3851 O.2     1  UNL1       -0.1544
     31 O         146.9804  142.7913  157.6029 O.2     1  UNL1       -0.1544
@<TRIPOS>BOND
     1    28    29    1
     2    29    30    2
     3    29    31    2
     4    29    26    1
     5    26     1    1
     6     1     2   ar
     7     2     3   ar
     8     3     4   ar
     9     4     5   ar
    10     5     6   ar
    11     5     7   ar
    12     7     8   ar
    13     8     9   ar
    14     9    10    1
    15    10    11    1
    16    11    12    1
    17    11    13    1
    18    13    17    1
    19    17    18   ar
    20    18    19   ar
    21    19    20    1
    22    19    21   ar
    23    21    22    1
    24    21    23   ar
    25    23    24   ar
    26    24    25    1
    27    13    14    1
    28     6     1   ar
    29    14     8    1
    30     9     4   ar
    31    24    17   ar
    32    26    27    1
    33    12    15    1
    34    12    16    1
@<TRIPOS>MOLECULE
*****
 31 34 0 0 0
SMALL
GASTEIGER

@<TRIPOS>ATOM
      1 C         139.7916  139.1817  161.0113 C.ar    1  UNL1        0.0660
      2 C         141.0678  139.8884  161.3603 C.ar    1  UNL1        0.0174
      3 C         141.4260  141.1728  160.6733 C.ar    1  UNL1        0.0201
      4 C         140.5081  141.7504  159.6372 C.ar    1  UNL1        0.0787
      5 C         139.2319  141.0438  159.2881 C.ar    1  UNL1        0.0996
      6 C         138.8737  139.7594  159.9751 C.ar    1  UNL1        0.0364
      7 N         138.5301  141.8478  158.2340 N.ar    1  UNL1       -0.2309
      8 C         139.3727  143.0514  157.9316 C.ar    1  UNL1        0.1207
      9 N         140.5951  142.9912  158.7988 N.ar    1  UNL1       -0.3135
     10 C         141.6296  144.0741  158.7131 C.3     1  UNL1        0.1229
     11 C         141.4416  145.2172  157.7601 C.3     1  UNL1        0.0783
     12 N         142.4760  146.3000  157.6744 N.3     1  UNL1       -0.3204
     13 C         140.2191  145.2774  156.8929 C.3     1  UNL1        0.0482
     14 C         139.1847  144.1945  156.9787 C.3     1  UNL1        0.0698
     15 H         143.2326  146.1001  158.3287 H       1  UNL1        0.1189
     16 H         142.0503  147.1964  157.9105 H       1  UNL1        0.1189
     17 C         140.0312  146.4204  155.9399 C.ar    1  UNL1        0.0091
     18 C         139.1121  147.5509  156.2967 C.ar    1  UNL1        0.0300
     19 C         138.9241  148.6940  155.3438 C.ar    1  UNL1        0.1672
     20 F         138.0051  149.8245  155.7006 F       1  UNL1       -0.2018
     21 C         139.6552  148.7065  154.0341 C.ar    1  UNL1        0.1696
     22 F         139.4672  149.8495  153.0811 F       1  UNL1       -0.2017
     23 C         140.5742  147.5759  153.6773 C.ar    1  UNL1        0.0612
     24 C         140.7622  146.4329  154.6302 C.ar    1  UNL1        0.1386
     25 F         141.6813  145.3024  154.2734 F       1  UNL1       -0.2044
     26 N         139.4334  137.8973  161.6983 N.pl3   1  UNL1       -0.2187
     27 H         139.0772  137.1425  161.1762 H       1  UNL1        0.1734
     28 C         139.8024  137.6286  164.6634 C.3     1  UNL1        0.1996
     29 S         139.6179  137.7630  163.1808 S.O2    1  UNL1        0.0558
     30 O         140.8256  136.9033  162.9526 O.2     1  UNL1       -0.1544
     31 O         138.4101  138.6227  163.4090 O.2     1  UNL1       -0.1544
@<TRIPOS>BOND
     1    28    29    1
     2    29    30    2
     3    29    31    2
     4    29    26    1
     5    26     1    1
     6     1     2   ar
     7     2     3   ar
     8     3     4   ar
     9     4     5   ar
    10     5     6   ar
    11     5     7   ar
    12     7     8   ar
    13     8     9   ar
    14     9    10    1
    15    10    11    1
    16    11    12    1
    17    11    13    1
    18    13    17    1
    19    17    18   ar
    20    18    19   ar
    21    19    20    1
    22    19    21   ar
    23    21    22    1
    24    21    23   ar
    25    23    24   ar
    26    24    25    1
    27    13    14    1
    28     6     1   ar
    29    14     8    1
    30     9     4   ar
    31    24    17   ar
    32    26    27    1
    33    12    15    1
    34    12    16    1
