@<TRIPOS>MOLECULE
*****
 39 45 0 0 0
SMALL
GASTEIGER

@<TRIPOS>ATOM
      1 C         138.4539  141.8461  164.4567 C.3     1  UNL1        0.0955
      2 C         138.0677  141.8615  163.0073 C.3     1  UNL1        0.0287
      3 C         138.0530  143.1554  162.2487 C.3     1  UNL1        0.0193
      4 C         138.4246  144.4340  162.9394 C.3     1  UNL1        0.0700
      5 C         138.8107  144.4187  164.3888 C.3     1  UNL1        0.0193
      6 C         138.8254  143.1247  165.1475 C.3     1  UNL1        0.0287
      7 C         138.4473  143.7495  163.3967 C.3     1  UNL1        0.1562
      8 O         138.4605  142.5796  164.0826 O.3     1  UNL1       -0.3571
      9 N         138.4099  145.7280  162.1808 N.3     1  UNL1       -0.2938
     10 H         138.1272  146.4528  162.8404 H       1  UNL1        0.1235
     11 C         139.6584  146.2173  161.5086 C.3     1  UNL1        0.0980
     12 C         140.7977  145.2728  161.2634 C.ar    1  UNL1        0.0243
     13 C         141.7261  144.9105  162.3843 C.ar    1  UNL1        0.0394
     14 C         142.8654  143.9661  162.1390 C.ar    1  UNL1        0.1723
     15 C         143.0761  143.3840  160.7728 C.ar    1  UNL1        0.1746
     16 C         142.1477  143.7463  159.6518 C.ar    1  UNL1        0.0694
     17 C         141.0084  144.6907  159.8971 C.ar    1  UNL1        0.1407
     18 F         140.0799  145.0530  158.7760 F       1  UNL1       -0.2044
     19 O         144.2154  142.4395  160.5274 O.3     1  UNL1       -0.4683
     20 C         145.1439  142.0772  161.6485 C.3     1  UNL1        0.2526
     21 C         144.9330  142.6593  163.0147 C.3     1  UNL1        0.2526
     22 O         143.7938  143.6038  163.2600 O.3     1  UNL1       -0.4684
     23 C         138.4685  140.5522  165.2153 C.3     1  UNL1        0.0604
     24 O         138.8611  140.8992  170.3151 O.2     1  UNL1       -0.2670
     25 C         140.0735  140.2896  169.6761 C.ar    1  UNL1        0.2611
     26 C         141.2316  139.8571  170.5256 C.ar    1  UNL1        0.0623
     27 C         142.4441  139.2475  169.8866 C.ar    1  UNL1        0.0254
     28 C         142.4984  139.0704  168.3981 C.ar    1  UNL1        0.0972
     29 N         143.5654  138.4996  167.5002 N.ar    1  UNL1       -0.2400
     30 C         143.4763  138.3864  166.0071 C.ar    1  UNL1        0.1282
     31 C         142.2481  138.8640  165.2907 C.ar    1  UNL1        0.1588
     32 F         142.1590  138.7508  163.7977 F       1  UNL1       -0.2027
     33 C         141.1089  139.4548  166.0673 C.ar    1  UNL1        0.0500
     34 C         141.3403  139.5029  167.5486 C.ar    1  UNL1        0.0806
     35 N         140.1279  140.1125  168.1876 N.ar    1  UNL1       -0.2915
     36 C         139.1471  140.4412  167.1013 C.3     1  UNL1        0.1402
     37 C         139.7534  140.0347  165.7909 C.3     1  UNL1        0.1335
     38 O         140.0911  139.7364  164.3602 O.3     1  UNL1       -0.3806
     39 H         139.3545  140.0084  163.7906 H       1  UNL1        0.2108
@<TRIPOS>BOND
     1    24    25    2
     2    25    26   ar
     3    26    27   ar
     4    27    28   ar
     5    28    29   ar
     6    29    30   ar
     7    30    31   ar
     8    31    32    1
     9    31    33   ar
    10    33    34   ar
    11    34    35   ar
    12    35    36    1
    13    36    37    1
    14    37    38    1
    15    37    23    1
    16    23     1    1
    17     1     2    1
    18     2     3    1
    19     3     4    1
    20     4     9    1
    21     9    11    1
    22    11    12    1
    23    12    13   ar
    24    13    14   ar
    25    14    15   ar
    26    15    16   ar
    27    16    17   ar
    28    17    18    1
    29    15    19    1
    30    19    20    1
    31    20    21    1
    32    21    22    1
    33     4     5    1
    34     5     6    1
    35     4     7    1
    36     7     8    1
    37    35    25   ar
    38     6     1    1
    39    34    28   ar
    40     8     1    1
    41    37    33    1
    42    17    12   ar
    43    22    14    1
    44    38    39    1
    45     9    10    1
@<TRIPOS>MOLECULE
*****
 39 45 0 0 0
SMALL
GASTEIGER

@<TRIPOS>ATOM
      1 C         138.5046  141.9045  164.4657 C.3     1  UNL1        0.0955
      2 C         138.0284  141.9078  163.0433 C.3     1  UNL1        0.0287
      3 C         138.0363  143.1824  162.2526 C.3     1  UNL1        0.0193
      4 C         138.5205  144.4538  162.8843 C.3     1  UNL1        0.0700
      5 C         138.9967  144.4506  164.3067 C.3     1  UNL1        0.0193
      6 C         138.9888  143.1759  165.0974 C.3     1  UNL1        0.0287
      7 C         138.5348  143.7800  163.3575 C.3     1  UNL1        0.1562
      8 O         138.5276  142.6275  164.0724 O.3     1  UNL1       -0.3571
      9 N         138.5285  145.7285  162.0936 N.3     1  UNL1       -0.2938
     10 H         138.2385  146.4713  162.7296 H       1  UNL1        0.1235
     11 C         139.7923  146.1931  161.4327 C.3     1  UNL1        0.0980
     12 C         140.8756  145.2073  161.1091 C.ar    1  UNL1        0.0243
     13 C         140.8969  144.5284  159.7717 C.ar    1  UNL1        0.0394
     14 C         141.9802  143.5427  159.4481 C.ar    1  UNL1        0.1723
     15 C         143.0423  143.2358  160.4619 C.ar    1  UNL1        0.1746
     16 C         143.0210  143.9147  161.7993 C.ar    1  UNL1        0.0694
     17 C         141.9377  144.9004  162.1229 C.ar    1  UNL1        0.1407
     18 F         141.9166  145.5793  163.4604 F       1  UNL1       -0.2044
     19 O         144.1256  142.2500  160.1383 O.3     1  UNL1       -0.4683
     20 C         144.1467  141.5711  158.8008 C.3     1  UNL1        0.2526
     21 C         143.0847  141.8781  157.7871 C.3     1  UNL1        0.2526
     22 O         142.0014  142.8638  158.1107 O.3     1  UNL1       -0.4684
     23 C         138.4966  140.6298  165.2564 C.3     1  UNL1        0.0604
     24 O         138.8873  140.9118  170.3604 O.2     1  UNL1       -0.2670
     25 C         140.0945  140.2982  169.7152 C.ar    1  UNL1        0.2611
     26 C         141.2475  139.8444  170.5604 C.ar    1  UNL1        0.0623
     27 C         142.4547  139.2308  169.9152 C.ar    1  UNL1        0.0254
     28 C         142.5088  139.0711  168.4248 C.ar    1  UNL1        0.0972
     29 N         143.5711  138.5008  167.5210 N.ar    1  UNL1       -0.2400
     30 C         143.4824  138.4063  166.0266 C.ar    1  UNL1        0.1282
     31 C         142.2596  138.9044  165.3149 C.ar    1  UNL1        0.1588
     32 F         142.1710  138.8100  163.8205 F       1  UNL1       -0.2027
     33 C         141.1254  139.4969  166.0976 C.ar    1  UNL1        0.0500
     34 C         141.3558  139.5249  167.5795 C.ar    1  UNL1        0.0806
     35 N         140.1486  140.1385  168.2247 N.ar    1  UNL1       -0.2915
     36 C         139.1722  140.4896  167.1415 C.3     1  UNL1        0.1402
     37 C         139.7758  140.0931  165.8268 C.3     1  UNL1        0.1335
     38 O         140.1121  139.8087  164.3930 O.3     1  UNL1       -0.3806
     39 H         139.3788  140.0947  163.8260 H       1  UNL1        0.2108
@<TRIPOS>BOND
     1    24    25    2
     2    25    26   ar
     3    26    27   ar
     4    27    28   ar
     5    28    29   ar
     6    29    30   ar
     7    30    31   ar
     8    31    32    1
     9    31    33   ar
    10    33    34   ar
    11    34    35   ar
    12    35    36    1
    13    36    37    1
    14    37    38    1
    15    37    23    1
    16    23     1    1
    17     1     2    1
    18     2     3    1
    19     3     4    1
    20     4     9    1
    21     9    11    1
    22    11    12    1
    23    12    13   ar
    24    13    14   ar
    25    14    15   ar
    26    15    16   ar
    27    16    17   ar
    28    17    18    1
    29    15    19    1
    30    19    20    1
    31    20    21    1
    32    21    22    1
    33     4     5    1
    34     5     6    1
    35     4     7    1
    36     7     8    1
    37    35    25   ar
    38     6     1    1
    39    34    28   ar
    40     8     1    1
    41    37    33    1
    42    17    12   ar
    43    22    14    1
    44    38    39    1
    45     9    10    1
@<TRIPOS>MOLECULE
*****
 39 45 0 0 0
SMALL
GASTEIGER

@<TRIPOS>ATOM
      1 C         138.2690  141.7216  164.6514 C.3     1  UNL1        0.0955
      2 C         139.2067  142.6535  165.3603 C.3     1  UNL1        0.0287
      3 C         140.0931  142.1365  166.4544 C.3     1  UNL1        0.0193
      4 C         140.0418  140.6877  166.8396 C.3     1  UNL1        0.0700
      5 C         139.1042  139.7559  166.1307 C.3     1  UNL1        0.0193
      6 C         138.2178  140.2728  165.0365 C.3     1  UNL1        0.0287
      7 C         139.5369  140.9247  166.2338 C.3     1  UNL1        0.1562
      8 O         138.7354  141.3922  165.2445 O.3     1  UNL1       -0.3571
      9 N         140.9282  140.1707  167.9337 N.3     1  UNL1       -0.2938
     10 H         140.4589  139.3582  168.3337 H       1  UNL1        0.1235
     11 C         142.3341  139.7497  167.6238 C.3     1  UNL1        0.0980
     12 C         142.8716  139.8972  166.2312 C.ar    1  UNL1        0.0243
     13 C         142.6962  138.7869  165.2380 C.ar    1  UNL1        0.0394
     14 C         143.2337  138.9345  163.8454 C.ar    1  UNL1        0.1723
     15 C         143.9465  140.1924  163.4460 C.ar    1  UNL1        0.1746
     16 C         144.1219  141.3027  164.4392 C.ar    1  UNL1        0.0694
     17 C         143.5844  141.1551  165.8318 C.ar    1  UNL1        0.1407
     18 F         143.7599  142.2655  166.8249 F       1  UNL1       -0.2044
     19 O         144.4840  140.3400  162.0533 O.3     1  UNL1       -0.4683
     20 C         144.3085  139.2296  161.0602 C.3     1  UNL1        0.2526
     21 C         143.5957  137.9718  161.4596 C.3     1  UNL1        0.2526
     22 O         143.0582  137.8242  162.8523 O.3     1  UNL1       -0.4684
     23 C         137.3826  142.2386  163.5573 C.3     1  UNL1        0.0604
     24 O         140.2827  146.1725  162.0093 O.2     1  UNL1       -0.2670
     25 C         140.0481  145.1590  160.9286 C.ar    1  UNL1        0.2611
     26 C         140.6426  145.3635  159.5668 C.ar    1  UNL1        0.0623
     27 C         140.4080  144.3500  158.4861 C.ar    1  UNL1        0.0254
     28 C         139.5788  143.1321  158.7673 C.ar    1  UNL1        0.0972
     29 N         139.1841  141.9708  157.8921 N.ar    1  UNL1       -0.2400
     30 C         138.3377  140.8084  158.3191 C.ar    1  UNL1        0.1282
     31 C         137.8106  140.7398  159.7218 C.ar    1  UNL1        0.1588
     32 F         136.9641  139.5774  160.1488 F       1  UNL1       -0.2027
     33 C         138.1299  141.8335  160.6974 C.ar    1  UNL1        0.0500
     34 C         138.9842  142.9277  160.1291 C.ar    1  UNL1        0.0806
     35 N         139.2188  143.9412  161.2098 N.ar    1  UNL1       -0.2915
     36 C         138.5095  143.4733  162.4459 C.3     1  UNL1        0.1402
     37 C         137.8365  142.1707  162.1292 C.3     1  UNL1        0.1335
     38 O         137.0686  140.8823  162.1111 O.3     1  UNL1       -0.3806
     39 H         136.6740  140.7288  162.9838 H       1  UNL1        0.2108
@<TRIPOS>BOND
     1    24    25    2
     2    25    26   ar
     3    26    27   ar
     4    27    28   ar
     5    28    29   ar
     6    29    30   ar
     7    30    31   ar
     8    31    32    1
     9    31    33   ar
    10    33    34   ar
    11    34    35   ar
    12    35    36    1
    13    36    37    1
    14    37    38    1
    15    37    23    1
    16    23     1    1
    17     1     2    1
    18     2     3    1
    19     3     4    1
    20     4     9    1
    21     9    11    1
    22    11    12    1
    23    12    13   ar
    24    13    14   ar
    25    14    15   ar
    26    15    16   ar
    27    16    17   ar
    28    17    18    1
    29    15    19    1
    30    19    20    1
    31    20    21    1
    32    21    22    1
    33     4     5    1
    34     5     6    1
    35     4     7    1
    36     7     8    1
    37    35    25   ar
    38     6     1    1
    39    34    28   ar
    40     8     1    1
    41    37    33    1
    42    17    12   ar
    43    22    14    1
    44    38    39    1
    45     9    10    1
@<TRIPOS>MOLECULE
*****
 39 45 0 0 0
SMALL
GASTEIGER

@<TRIPOS>ATOM
      1 C         138.5237  138.3604  163.3124 C.3     1  UNL1        0.0955
      2 C         138.2734  139.7773  163.7365 C.3     1  UNL1        0.0287
      3 C         138.3177  140.1439  165.1903 C.3     1  UNL1        0.0193
      4 C         138.6122  139.0937  166.2200 C.3     1  UNL1        0.0700
      5 C         138.8625  137.6769  165.7959 C.3     1  UNL1        0.0193
      6 C         138.8183  137.3102  164.3421 C.3     1  UNL1        0.0287
      7 C         138.5986  138.8449  165.4352 C.3     1  UNL1        0.1562
      8 O         138.5585  138.5134  164.1207 O.3     1  UNL1       -0.3571
      9 N         138.6565  139.4604  167.6739 N.3     1  UNL1       -0.2938
     10 H         138.4199  138.6176  168.1974 H       1  UNL1        0.1235
     11 C         139.9208  140.0015  168.2726 C.3     1  UNL1        0.0980
     12 C         141.0275  140.4814  167.3809 C.ar    1  UNL1        0.0243
     13 C         141.9722  139.4950  166.7607 C.ar    1  UNL1        0.0394
     14 C         143.0788  139.9749  165.8690 C.ar    1  UNL1        0.1723
     15 C         143.2408  141.4413  165.5976 C.ar    1  UNL1        0.1746
     16 C         142.2962  142.4276  166.2179 C.ar    1  UNL1        0.0694
     17 C         141.1895  141.9477  167.1095 C.ar    1  UNL1        0.1407
     18 F         140.2449  142.9342  167.7298 F       1  UNL1       -0.2044
     19 O         144.3474  141.9212  164.7060 O.3     1  UNL1       -0.4683
     20 C         145.2920  140.9347  164.0858 C.3     1  UNL1        0.2526
     21 C         145.1300  139.4685  164.3572 C.3     1  UNL1        0.2526
     22 O         144.0234  138.9885  165.2489 O.3     1  UNL1       -0.4684
     23 C         138.4794  137.9937  161.8585 C.3     1  UNL1        0.0604
     24 O         137.0942  140.6114  157.6739 O.2     1  UNL1       -0.2670
     25 C         138.5743  140.3820  157.7560 C.ar    1  UNL1        0.2611
     26 C         139.4751  140.9033  156.6759 C.ar    1  UNL1        0.0623
     27 C         140.9552  140.6739  156.7580 C.ar    1  UNL1        0.0254
     28 C         141.5344  139.9230  157.9202 C.ar    1  UNL1        0.0972
     29 N         142.9547  139.5509  158.2587 N.ar    1  UNL1       -0.2400
     30 C         143.3871  138.7865  159.4748 C.ar    1  UNL1        0.1282
     31 C         142.3669  138.3271  160.4738 C.ar    1  UNL1        0.1588
     32 F         142.7992  137.5628  161.6899 F       1  UNL1       -0.2027
     33 C         140.9143  138.6321  160.2569 C.ar    1  UNL1        0.0500
     34 C         140.6336  139.4016  159.0002 C.ar    1  UNL1        0.0806
     35 N         139.1535  139.6311  158.9181 N.ar    1  UNL1       -0.2915
     36 C         138.5196  139.0034  160.1240 C.3     1  UNL1        0.1402
     37 C         139.6078  138.3860  160.9514 C.3     1  UNL1        0.1335
     38 O         140.4601  137.6866  161.9684 O.3     1  UNL1       -0.3806
     39 H         139.8975  137.3402  162.6786 H       1  UNL1        0.2108
@<TRIPOS>BOND
     1    24    25    2
     2    25    26   ar
     3    26    27   ar
     4    27    28   ar
     5    28    29   ar
     6    29    30   ar
     7    30    31   ar
     8    31    32    1
     9    31    33   ar
    10    33    34   ar
    11    34    35   ar
    12    35    36    1
    13    36    37    1
    14    37    38    1
    15    37    23    1
    16    23     1    1
    17     1     2    1
    18     2     3    1
    19     3     4    1
    20     4     9    1
    21     9    11    1
    22    11    12    1
    23    12    13   ar
    24    13    14   ar
    25    14    15   ar
    26    15    16   ar
    27    16    17   ar
    28    17    18    1
    29    15    19    1
    30    19    20    1
    31    20    21    1
    32    21    22    1
    33     4     5    1
    34     5     6    1
    35     4     7    1
    36     7     8    1
    37    35    25   ar
    38     6     1    1
    39    34    28   ar
    40     8     1    1
    41    37    33    1
    42    17    12   ar
    43    22    14    1
    44    38    39    1
    45     9    10    1
@<TRIPOS>MOLECULE
*****
 39 45 0 0 0
SMALL
GASTEIGER

@<TRIPOS>ATOM
      1 C         140.1542  138.1714  164.4219 C.3     1  UNL1        0.0955
      2 C         138.8885  138.7975  164.9280 C.3     1  UNL1        0.0287
      3 C         138.9165  139.6588  166.1557 C.3     1  UNL1        0.0193
      4 C         140.2103  139.8940  166.8774 C.3     1  UNL1        0.0700
      5 C         141.4759  139.2680  166.3714 C.3     1  UNL1        0.0193
      6 C         141.4480  138.4066  165.1436 C.3     1  UNL1        0.0287
      7 C         140.2446  139.4145  166.2089 C.3     1  UNL1        0.1562
      8 O         140.2193  138.6357  165.0988 O.3     1  UNL1       -0.3571
      9 N         140.2383  140.7554  168.1052 N.3     1  UNL1       -0.2938
     10 H         140.9267  140.3457  168.7366 H       1  UNL1        0.1235
     11 C         140.5698  142.2138  167.9907 C.3     1  UNL1        0.0980
     12 C         140.8682  142.8119  166.6478 C.ar    1  UNL1        0.0243
     13 C         139.7835  143.5046  165.8774 C.ar    1  UNL1        0.0394
     14 C         140.0821  144.1027  164.5346 C.ar    1  UNL1        0.1723
     15 C         141.4653  144.0081  163.9622 C.ar    1  UNL1        0.1746
     16 C         142.5500  143.3154  164.7326 C.ar    1  UNL1        0.0694
     17 C         142.2515  142.7173  166.0754 C.ar    1  UNL1        0.1407
     18 F         143.3363  142.0245  166.8458 F       1  UNL1       -0.2044
     19 O         141.7639  144.6062  162.6193 O.3     1  UNL1       -0.4683
     20 C         140.6791  145.2989  161.8490 C.3     1  UNL1        0.2526
     21 C         139.2959  145.3935  162.4214 C.3     1  UNL1        0.2526
     22 O         138.9974  144.7954  163.7642 O.3     1  UNL1       -0.4684
     23 C         140.1261  137.3101  163.1942 C.3     1  UNL1        0.0604
     24 O         136.7112  139.9675  160.4448 O.2     1  UNL1       -0.2670
     25 C         138.0520  139.8745  159.7787 C.ar    1  UNL1        0.2611
     26 C         138.2739  140.5250  158.4455 C.ar    1  UNL1        0.0623
     27 C         139.6146  140.4320  157.7794 C.ar    1  UNL1        0.0254
     28 C         140.7336  139.6885  158.4466 C.ar    1  UNL1        0.0972
     29 N         142.1568  139.4368  158.0207 N.ar    1  UNL1       -0.2400
     30 C         143.1753  138.6637  158.8048 C.ar    1  UNL1        0.1282
     31 C         142.8062  138.0672  160.1307 C.ar    1  UNL1        0.1588
     32 F         143.8247  137.2941  160.9149 F       1  UNL1       -0.2027
     33 C         141.4186  138.2438  160.6724 C.ar    1  UNL1        0.0500
     34 C         140.5117  139.0380  159.7798 C.ar    1  UNL1        0.0806
     35 N         139.1709  139.1310  160.4459 N.ar    1  UNL1       -0.2915
     36 C         139.2493  138.3943  161.7501 C.3     1  UNL1        0.1402
     37 C         140.6384  137.8460  161.8902 C.3     1  UNL1        0.1335
     38 O         141.9205  137.1856  162.3028 O.3     1  UNL1       -0.3806
     39 H         141.8006  136.7571  163.1647 H       1  UNL1        0.2108
@<TRIPOS>BOND
     1    24    25    2
     2    25    26   ar
     3    26    27   ar
     4    27    28   ar
     5    28    29   ar
     6    29    30   ar
     7    30    31   ar
     8    31    32    1
     9    31    33   ar
    10    33    34   ar
    11    34    35   ar
    12    35    36    1
    13    36    37    1
    14    37    38    1
    15    37    23    1
    16    23     1    1
    17     1     2    1
    18     2     3    1
    19     3     4    1
    20     4     9    1
    21     9    11    1
    22    11    12    1
    23    12    13   ar
    24    13    14   ar
    25    14    15   ar
    26    15    16   ar
    27    16    17   ar
    28    17    18    1
    29    15    19    1
    30    19    20    1
    31    20    21    1
    32    21    22    1
    33     4     5    1
    34     5     6    1
    35     4     7    1
    36     7     8    1
    37    35    25   ar
    38     6     1    1
    39    34    28   ar
    40     8     1    1
    41    37    33    1
    42    17    12   ar
    43    22    14    1
    44    38    39    1
    45     9    10    1
@<TRIPOS>MOLECULE
*****
 39 45 0 0 0
SMALL
GASTEIGER

@<TRIPOS>ATOM
      1 C         138.7782  138.9320  164.1321 C.3     1  UNL1        0.0955
      2 C         138.1800  140.2569  163.7619 C.3     1  UNL1        0.0287
      3 C         137.7250  140.5074  162.3547 C.3     1  UNL1        0.0193
      4 C         137.8682  139.4331  161.3177 C.3     1  UNL1        0.0700
      5 C         138.4664  138.1083  161.6879 C.3     1  UNL1        0.0193
      6 C         138.9215  137.8577  163.0951 C.3     1  UNL1        0.0287
      7 C         138.1320  139.2492  162.0758 C.3     1  UNL1        0.1562
      8 O         138.5433  139.0227  163.3482 O.3     1  UNL1       -0.3571
      9 N         137.4132  139.6836  159.9105 N.3     1  UNL1       -0.2938
     10 H         136.6370  140.3430  159.9650 H       1  UNL1        0.1235
     11 C         138.3751  140.2298  158.8974 C.3     1  UNL1        0.0980
     12 C         139.6188  139.4643  158.5550 C.ar    1  UNL1        0.0243
     13 C         139.5791  138.4044  157.4942 C.ar    1  UNL1        0.0394
     14 C         140.8228  137.6390  157.1519 C.ar    1  UNL1        0.1723
     15 C         142.1063  137.9333  157.8703 C.ar    1  UNL1        0.1746
     16 C         142.1460  138.9931  158.9310 C.ar    1  UNL1        0.0694
     17 C         140.9023  139.7586  159.2734 C.ar    1  UNL1        0.1407
     18 F         140.9421  140.8185  160.3342 F       1  UNL1       -0.2044
     19 O         143.3500  137.1678  157.5280 O.3     1  UNL1       -0.4683
     20 C         143.3102  136.1080  156.4672 C.3     1  UNL1        0.2526
     21 C         142.0267  135.8137  155.7489 C.3     1  UNL1        0.2526
     22 O         140.7830  136.5792  156.0912 O.3     1  UNL1       -0.4684
     23 C         139.2332  138.6815  165.5394 C.3     1  UNL1        0.0604
     24 O         137.9826  139.9664  170.3422 O.2     1  UNL1       -0.2670
     25 C         139.2387  140.6347  169.8670 C.ar    1  UNL1        0.2611
     26 C         139.9826  141.5669  170.7767 C.ar    1  UNL1        0.0623
     27 C         141.2386  142.2351  170.3015 C.ar    1  UNL1        0.0254
     28 C         141.7508  141.9711  168.9167 C.ar    1  UNL1        0.0972
     29 N         142.9609  142.4915  168.1851 N.ar    1  UNL1       -0.2400
     30 C         143.3496  142.1324  166.7816 C.ar    1  UNL1        0.1282
     31 C         142.5031  141.1808  165.9891 C.ar    1  UNL1        0.1588
     32 F         142.8918  140.8217  164.5856 F       1  UNL1       -0.2027
     33 C         141.2679  140.5885  166.6002 C.ar    1  UNL1        0.0500
     34 C         141.0070  141.0389  168.0070 C.ar    1  UNL1        0.0806
     35 N         139.7509  140.3706  168.4822 N.ar    1  UNL1       -0.2915
     36 C         139.2356  139.5073  167.3690 C.3     1  UNL1        0.1402
     37 C         140.1731  139.6419  166.2059 C.3     1  UNL1        0.1335
     38 O         140.9142  139.5758  164.9034 O.3     1  UNL1       -0.3806
     39 H         140.4502  138.9770  164.2975 H       1  UNL1        0.2108
@<TRIPOS>BOND
     1    24    25    2
     2    25    26   ar
     3    26    27   ar
     4    27    28   ar
     5    28    29   ar
     6    29    30   ar
     7    30    31   ar
     8    31    32    1
     9    31    33   ar
    10    33    34   ar
    11    34    35   ar
    12    35    36    1
    13    36    37    1
    14    37    38    1
    15    37    23    1
    16    23     1    1
    17     1     2    1
    18     2     3    1
    19     3     4    1
    20     4     9    1
    21     9    11    1
    22    11    12    1
    23    12    13   ar
    24    13    14   ar
    25    14    15   ar
    26    15    16   ar
    27    16    17   ar
    28    17    18    1
    29    15    19    1
    30    19    20    1
    31    20    21    1
    32    21    22    1
    33     4     5    1
    34     5     6    1
    35     4     7    1
    36     7     8    1
    37    35    25   ar
    38     6     1    1
    39    34    28   ar
    40     8     1    1
    41    37    33    1
    42    17    12   ar
    43    22    14    1
    44    38    39    1
    45     9    10    1
@<TRIPOS>MOLECULE
*****
 39 45 0 0 0
SMALL
GASTEIGER

@<TRIPOS>ATOM
      1 C         137.7049  141.0239  161.7241 C.3     1  UNL1        0.0955
      2 C         137.5270  140.8821  163.2069 C.3     1  UNL1        0.0287
      3 C         137.7353  142.0661  164.1039 C.3     1  UNL1        0.0193
      4 C         138.1216  143.3920  163.5183 C.3     1  UNL1        0.0700
      5 C         138.2995  143.5338  162.0356 C.3     1  UNL1        0.0193
      6 C         138.0911  142.3497  161.1385 C.3     1  UNL1        0.0287
      7 C         138.0184  142.7717  162.9865 C.3     1  UNL1        0.1562
      8 O         137.8300  141.7011  162.1755 O.3     1  UNL1       -0.3571
      9 N         138.3300  144.5760  164.4153 N.3     1  UNL1       -0.2938
     10 H         137.6146  144.5254  165.1406 H       1  UNL1        0.1235
     11 C         139.6433  144.7650  165.1148 C.3     1  UNL1        0.0980
     12 C         140.9152  144.3215  164.4548 C.ar    1  UNL1        0.0243
     13 C         141.6791  143.1543  165.0063 C.ar    1  UNL1        0.0394
     14 C         142.9510  142.7110  164.3462 C.ar    1  UNL1        0.1723
     15 C         143.4591  143.4348  163.1346 C.ar    1  UNL1        0.1746
     16 C         142.6952  144.6020  162.5831 C.ar    1  UNL1        0.0694
     17 C         141.4233  145.0453  163.2432 C.ar    1  UNL1        0.1407
     18 F         140.6595  146.2126  162.6916 F       1  UNL1       -0.2044
     19 O         144.7310  142.9914  162.4746 O.3     1  UNL1       -0.4683
     20 C         145.4948  141.8241  163.0262 C.3     1  UNL1        0.2526
     21 C         144.9867  141.1004  164.2377 C.3     1  UNL1        0.2526
     22 O         143.7148  141.5438  164.8978 O.3     1  UNL1       -0.4684
     23 C         137.4965  139.8399  160.8271 C.3     1  UNL1        0.0604
     24 O         141.8486  137.6947  162.4824 O.2     1  UNL1       -0.2670
     25 C         141.8223  137.8897  160.9954 C.ar    1  UNL1        0.2611
     26 C         142.9967  137.4685  160.1628 C.ar    1  UNL1        0.0623
     27 C         142.9703  137.6635  158.6758 C.ar    1  UNL1        0.0254
     28 C         141.7696  138.2797  158.0213 C.ar    1  UNL1        0.0972
     29 N         141.4706  138.5909  156.5776 N.ar    1  UNL1       -0.2400
     30 C         140.2071  139.2174  156.0668 C.ar    1  UNL1        0.1282
     31 C         139.1132  139.5874  157.0240 C.ar    1  UNL1        0.1588
     32 F         137.8497  140.2139  156.5132 F       1  UNL1       -0.2027
     33 C         139.2828  139.3309  158.4922 C.ar    1  UNL1        0.0500
     34 C         140.5952  138.7009  158.8539 C.ar    1  UNL1        0.0806
     35 N         140.6215  138.5059  160.3409 N.ar    1  UNL1       -0.2915
     36 C         139.3254  139.0154  160.8982 C.3     1  UNL1        0.1402
     37 C         138.4980  139.5252  159.7557 C.3     1  UNL1        0.1335
     38 O         137.4613  140.1008  158.8371 O.3     1  UNL1       -0.3806
     39 H         136.6903  140.3809  159.3548 H       1  UNL1        0.2108
@<TRIPOS>BOND
     1    24    25    2
     2    25    26   ar
     3    26    27   ar
     4    27    28   ar
     5    28    29   ar
     6    29    30   ar
     7    30    31   ar
     8    31    32    1
     9    31    33   ar
    10    33    34   ar
    11    34    35   ar
    12    35    36    1
    13    36    37    1
    14    37    38    1
    15    37    23    1
    16    23     1    1
    17     1     2    1
    18     2     3    1
    19     3     4    1
    20     4     9    1
    21     9    11    1
    22    11    12    1
    23    12    13   ar
    24    13    14   ar
    25    14    15   ar
    26    15    16   ar
    27    16    17   ar
    28    17    18    1
    29    15    19    1
    30    19    20    1
    31    20    21    1
    32    21    22    1
    33     4     5    1
    34     5     6    1
    35     4     7    1
    36     7     8    1
    37    35    25   ar
    38     6     1    1
    39    34    28   ar
    40     8     1    1
    41    37    33    1
    42    17    12   ar
    43    22    14    1
    44    38    39    1
    45     9    10    1
@<TRIPOS>MOLECULE
*****
 39 45 0 0 0
SMALL
GASTEIGER

@<TRIPOS>ATOM
      1 C         138.6530  138.9830  164.1176 C.3     1  UNL1        0.0955
      2 C         138.8270  137.9155  163.0781 C.3     1  UNL1        0.0287
      3 C         138.3948  138.1681  161.6641 C.3     1  UNL1        0.0193
      4 C         137.7885  139.4879  161.2895 C.3     1  UNL1        0.0700
      5 C         137.6145  140.5553  162.3290 C.3     1  UNL1        0.0193
      6 C         138.0468  140.3029  163.7430 C.3     1  UNL1        0.0287
      7 C         138.0102  139.3960  162.0773 C.3     1  UNL1        0.1562
      8 O         138.4011  139.1677  163.3558 O.3     1  UNL1       -0.3571
      9 N         137.3563  139.7405  159.8755 N.3     1  UNL1       -0.2938
     10 H         136.6531  140.4785  159.9099 H       1  UNL1        0.1235
     11 C         138.3655  140.1516  158.8449 C.3     1  UNL1        0.0980
     12 C         139.5237  141.0216  159.2346 C.ar    1  UNL1        0.0243
     13 C         140.7568  140.4075  159.8281 C.ar    1  UNL1        0.0394
     14 C         141.9149  141.2776  160.2178 C.ar    1  UNL1        0.1723
     15 C         141.8399  142.7618  160.0139 C.ar    1  UNL1        0.1746
     16 C         140.6068  143.3759  159.4204 C.ar    1  UNL1        0.0694
     17 C         139.4487  142.5058  159.0307 C.ar    1  UNL1        0.1407
     18 F         138.2156  143.1201  158.4371 F       1  UNL1       -0.2044
     19 O         142.9980  143.6318  160.4036 O.3     1  UNL1       -0.4683
     20 C         144.2311  143.0176  160.9971 C.3     1  UNL1        0.2526
     21 C         144.3060  141.5335  161.2010 C.3     1  UNL1        0.2526
     22 O         143.1479  140.6634  160.8113 O.3     1  UNL1       -0.4684
     23 C         139.0853  138.7305  165.5316 C.3     1  UNL1        0.0604
     24 O         137.9603  139.9662  170.3782 O.2     1  UNL1       -0.2670
     25 C         139.2226  140.6119  169.8887 C.ar    1  UNL1        0.2611
     26 C         140.0065  141.5111  170.7981 C.ar    1  UNL1        0.0623
     27 C         141.2688  142.1568  170.3087 C.ar    1  UNL1        0.0254
     28 C         141.7473  141.9033  168.9098 C.ar    1  UNL1        0.0972
     29 N         142.9551  142.4066  168.1626 N.ar    1  UNL1       -0.2400
     30 C         143.3075  142.0612  166.7461 C.ar    1  UNL1        0.1282
     31 C         142.4229  141.1433  165.9557 C.ar    1  UNL1        0.1588
     32 F         142.7753  140.7979  164.5392 F       1  UNL1       -0.2027
     33 C         141.1859  140.5707  166.5818 C.ar    1  UNL1        0.0500
     34 C         140.9635  141.0041  168.0005 C.ar    1  UNL1        0.0806
     35 N         139.7011  140.3584  168.4899 N.ar    1  UNL1       -0.2915
     36 C         139.1434  139.5259  167.3737 C.3     1  UNL1        0.1402
     37 C         140.0610  139.6571  166.1944 C.3     1  UNL1        0.1335
     38 O         140.7747  139.5946  164.8766 O.3     1  UNL1       -0.3806
     39 H         140.2846  139.0170  164.2706 H       1  UNL1        0.2108
@<TRIPOS>BOND
     1    24    25    2
     2    25    26   ar
     3    26    27   ar
     4    27    28   ar
     5    28    29   ar
     6    29    30   ar
     7    30    31   ar
     8    31    32    1
     9    31    33   ar
    10    33    34   ar
    11    34    35   ar
    12    35    36    1
    13    36    37    1
    14    37    38    1
    15    37    23    1
    16    23     1    1
    17     1     2    1
    18     2     3    1
    19     3     4    1
    20     4     9    1
    21     9    11    1
    22    11    12    1
    23    12    13   ar
    24    13    14   ar
    25    14    15   ar
    26    15    16   ar
    27    16    17   ar
    28    17    18    1
    29    15    19    1
    30    19    20    1
    31    20    21    1
    32    21    22    1
    33     4     5    1
    34     5     6    1
    35     4     7    1
    36     7     8    1
    37    35    25   ar
    38     6     1    1
    39    34    28   ar
    40     8     1    1
    41    37    33    1
    42    17    12   ar
    43    22    14    1
    44    38    39    1
    45     9    10    1
@<TRIPOS>MOLECULE
*****
 39 45 0 0 0
SMALL
GASTEIGER

@<TRIPOS>ATOM
      1 C         137.9186  140.3775  162.3064 C.3     1  UNL1        0.0955
      2 C         137.9475  140.2827  163.8032 C.3     1  UNL1        0.0287
      3 C         137.8567  141.5274  164.6354 C.3     1  UNL1        0.0193
      4 C         137.7371  142.8668  163.9709 C.3     1  UNL1        0.0700
      5 C         137.7082  142.9616  162.4742 C.3     1  UNL1        0.0193
      6 C         137.7990  141.7169  161.6419 C.3     1  UNL1        0.0287
      7 C         137.7839  142.2127  163.4729 C.3     1  UNL1        0.1562
      8 O         137.8660  141.0873  162.7204 O.3     1  UNL1       -0.3571
      9 N         137.6463  144.1115  164.8031 N.3     1  UNL1       -0.2938
     10 H         137.1036  143.8720  165.6328 H       1  UNL1        0.1235
     11 C         138.8974  144.7853  165.2835 C.3     1  UNL1        0.0980
     12 C         140.2317  144.1378  165.0586 C.ar    1  UNL1        0.0243
     13 C         141.0430  144.4925  163.8479 C.ar    1  UNL1        0.0394
     14 C         142.3773  143.8449  163.6232 C.ar    1  UNL1        0.1723
     15 C         142.9002  142.8428  164.6092 C.ar    1  UNL1        0.1746
     16 C         142.0888  142.4881  165.8199 C.ar    1  UNL1        0.0694
     17 C         140.7546  143.1356  166.0446 C.ar    1  UNL1        0.1407
     18 F         139.9432  142.7809  167.2555 F       1  UNL1       -0.2044
     19 O         144.2344  142.1952  164.3844 O.3     1  UNL1       -0.4683
     20 C         145.0457  142.5500  163.1736 C.3     1  UNL1        0.2526
     21 C         144.5228  143.5521  162.1877 C.3     1  UNL1        0.2526
     22 O         143.1886  144.1997  162.4124 O.3     1  UNL1       -0.4684
     23 C         138.0094  139.1328  161.4742 C.3     1  UNL1        0.0604
     24 O         138.0332  139.9204  156.4085 O.2     1  UNL1       -0.2670
     25 C         139.3341  139.3776  156.9213 C.ar    1  UNL1        0.2611
     26 C         140.4674  139.1242  155.9720 C.ar    1  UNL1        0.0623
     27 C         141.7683  138.5814  156.4848 C.ar    1  UNL1        0.0254
     28 C         141.9360  138.2921  157.9470 C.ar    1  UNL1        0.0972
     29 N         143.1059  137.7535  158.7291 N.ar    1  UNL1       -0.2400
     30 C         143.1257  137.5138  160.2097 C.ar    1  UNL1        0.1282
     31 C         141.9099  137.8161  161.0347 C.ar    1  UNL1        0.1588
     32 F         141.9297  137.5764  162.5153 F       1  UNL1       -0.2027
     33 C         140.6744  138.3581  160.3791 C.ar    1  UNL1        0.0500
     34 C         140.8027  138.5455  158.8964 C.ar    1  UNL1        0.0806
     35 N         139.5018  139.0883  158.3836 N.ar    1  UNL1       -0.2915
     36 C         138.5695  139.2363  159.5493 C.3     1  UNL1        0.1402
     37 C         139.2942  138.7850  160.7827 C.3     1  UNL1        0.1335
     38 O         139.7504  138.4064  162.1605 O.3     1  UNL1       -0.3806
     39 H         139.0318  138.5623  162.7932 H       1  UNL1        0.2108
@<TRIPOS>BOND
     1    24    25    2
     2    25    26   ar
     3    26    27   ar
     4    27    28   ar
     5    28    29   ar
     6    29    30   ar
     7    30    31   ar
     8    31    32    1
     9    31    33   ar
    10    33    34   ar
    11    34    35   ar
    12    35    36    1
    13    36    37    1
    14    37    38    1
    15    37    23    1
    16    23     1    1
    17     1     2    1
    18     2     3    1
    19     3     4    1
    20     4     9    1
    21     9    11    1
    22    11    12    1
    23    12    13   ar
    24    13    14   ar
    25    14    15   ar
    26    15    16   ar
    27    16    17   ar
    28    17    18    1
    29    15    19    1
    30    19    20    1
    31    20    21    1
    32    21    22    1
    33     4     5    1
    34     5     6    1
    35     4     7    1
    36     7     8    1
    37    35    25   ar
    38     6     1    1
    39    34    28   ar
    40     8     1    1
    41    37    33    1
    42    17    12   ar
    43    22    14    1
    44    38    39    1
    45     9    10    1
