@<TRIPOS>MOLECULE
*****
 32 35 0 0 0
SMALL
GASTEIGER

@<TRIPOS>ATOM
      1 C         143.8833  137.8866  166.5647 C.3     1  UNL1        0.0177
      2 C         143.0925  139.1485  166.7450 C.3     1  UNL1        0.0623
      3 C         142.5745  139.5213  168.1024 C.3     1  UNL1        0.0384
      4 C         141.7837  140.7831  168.2828 C.2     1  UNL1       -0.0343
      5 C         141.5110  141.6721  167.1058 C.2     1  UNL1       -0.0106
      6 C         140.7202  142.9338  167.2862 C.2     1  UNL1       -0.0020
      7 C         140.2022  143.3067  168.6436 C.2     1  UNL1        0.0169
      8 C         140.4749  142.4178  169.8206 C.2     1  UNL1        0.0896
      9 N         140.0958  142.5244  171.2680 N.2     1  UNL1       -0.1520
     10 N         140.6523  141.3284  171.9822 N.2     1  UNL1       -0.1507
     11 C         141.3753  140.4827  170.9762 C.2     1  UNL1        0.1054
     12 C         141.2657  141.1560  169.6402 C.3     1  UNL1        0.1032
     13 C         142.0291  141.2991  165.7484 C.3     1  UNL1        0.1069
     14 N         142.8198  140.0374  165.5680 N.3     1  UNL1       -0.2632
     15 C         141.7563  142.1881  164.5713 C.ar    1  UNL1        0.0512
     16 C         140.5983  141.8966  163.6636 C.ar    1  UNL1        0.1399
     17 F         139.7129  140.7160  163.9329 F       1  UNL1       -0.2044
     18 C         140.3255  142.7855  162.4866 C.ar    1  UNL1        0.0295
     19 C         141.2109  143.9660  162.2173 C.ar    1  UNL1        0.0045
     20 C         142.3689  144.2576  163.1249 C.ar    1  UNL1        0.0295
     21 C         142.6417  143.3686  164.3020 C.ar    1  UNL1        0.1399
     22 F         143.7997  143.6601  165.2097 F       1  UNL1       -0.2044
     23 C         140.9382  144.8550  161.0403 C.2     1  UNL1        0.0013
     24 C         141.6276  144.6006  159.7326 C.2     1  UNL1        0.0151
     25 C         141.3548  145.4895  158.5556 C.2     1  UNL1        0.0729
     26 O         142.4833  146.2200  157.8900 O.co2   1  UNL1       -0.5446
     27 O         139.9536  145.6480  158.0442 O.co2   1  UNL1       -0.5446
     28 C         143.3379  139.6645  164.2105 C.3     1  UNL1        0.1398
     29 C         144.3662  140.5246  163.5379 C.3     1  UNL1        0.2786
     30 C         145.3946  141.3849  162.8652 C.3     1  UNL1        0.0737
     31 F         143.4691  140.6634  162.3438 F       1  UNL1       -0.2028
     32 F         145.2634  140.3859  164.7319 F       1  UNL1       -0.2028
@<TRIPOS>UNITY_ATOM_ATTR
26 1
charge -1
@<TRIPOS>BOND
     1     2     1    1
     2     2     3    1
     3     3     4    1
     4     4     5    2
     5     5     6    1
     6     6     7    2
     7     7     8    1
     8     8     9    2
     9     9    10    1
    10    10    11    2
    11    11    12    1
    12     5    13    1
    13    13    15    1
    14    15    16   ar
    15    16    17    1
    16    16    18   ar
    17    18    19   ar
    18    19    23    1
    19    23    24    2
    20    24    25    1
    21    25    26   ar
    22    25    27   ar
    23    19    20   ar
    24    20    21   ar
    25    21    22    1
    26    13    14    1
    27    14    28    1
    28    28    29    1
    29    29    30    1
    30    29    31    1
    31    29    32    1
    32    14     2    1
    33    12     4    1
    34    21    15   ar
    35    12     8    1
@<TRIPOS>MOLECULE
*****
 32 35 0 0 0
SMALL
GASTEIGER

@<TRIPOS>ATOM
      1 C         137.4766  138.3857  167.2531 C.3     1  UNL1        0.0177
      2 C         138.7526  139.1696  167.1667 C.3     1  UNL1        0.0623
      3 C         139.2615  139.9087  168.3687 C.3     1  UNL1        0.0384
      4 C         140.5375  140.6926  168.2824 C.2     1  UNL1       -0.0343
      5 C         141.3046  140.7373  166.9942 C.2     1  UNL1       -0.0106
      6 C         142.5805  141.5211  166.9079 C.2     1  UNL1       -0.0020
      7 C         143.0894  142.2603  168.1098 C.2     1  UNL1        0.0169
      8 C         142.3223  142.2156  169.3981 C.2     1  UNL1        0.0896
      9 N         142.5748  142.8392  170.7387 N.2     1  UNL1       -0.1520
     10 N         141.4549  142.4408  171.6535 N.2     1  UNL1       -0.1507
     11 C         140.5102  141.5709  170.8783 C.2     1  UNL1        0.1054
     12 C         141.0463  141.4318  169.4843 C.3     1  UNL1        0.1032
     13 C         140.7957  139.9980  165.7922 C.3     1  UNL1        0.1069
     14 N         139.5197  139.2142  165.8785 N.3     1  UNL1       -0.2632
     15 C         141.5628  140.0427  164.5040 C.ar    1  UNL1        0.0512
     16 C         142.5928  138.9933  164.2076 C.ar    1  UNL1        0.1399
     17 F         142.8556  137.8991  165.1994 F       1  UNL1       -0.2044
     18 C         143.3599  139.0380  162.9193 C.ar    1  UNL1        0.0295
     19 C         143.0970  140.1322  161.9275 C.ar    1  UNL1        0.0045
     20 C         142.0671  141.1816  162.2239 C.ar    1  UNL1        0.0295
     21 C         141.3000  141.1369  163.5122 C.ar    1  UNL1        0.1399
     22 F         140.2700  142.1863  163.8086 F       1  UNL1       -0.2044
     23 C         143.8642  140.1769  160.6393 C.2     1  UNL1        0.0013
     24 C         143.6368  141.2984  159.6696 C.2     1  UNL1        0.0151
     25 C         144.4040  141.3431  158.3814 C.2     1  UNL1        0.0729
     26 O         144.6497  140.0800  157.6106 O.co2   1  UNL1       -0.5446
     27 O         144.9254  142.6510  157.8640 O.co2   1  UNL1       -0.5446
     28 C         139.0108  138.4750  164.6766 C.3     1  UNL1        0.1398
     29 C         138.4690  139.2351  163.5025 C.3     1  UNL1        0.2786
     30 C         137.9271  139.9953  162.3284 C.3     1  UNL1        0.0737
     31 F         137.7149  140.1369  164.4343 F       1  UNL1       -0.2028
     32 F         139.2230  138.3334  162.5707 F       1  UNL1       -0.2028
@<TRIPOS>UNITY_ATOM_ATTR
26 1
charge -1
@<TRIPOS>BOND
     1     2     1    1
     2     2     3    1
     3     3     4    1
     4     4     5    2
     5     5     6    1
     6     6     7    2
     7     7     8    1
     8     8     9    2
     9     9    10    1
    10    10    11    2
    11    11    12    1
    12     5    13    1
    13    13    15    1
    14    15    16   ar
    15    16    17    1
    16    16    18   ar
    17    18    19   ar
    18    19    23    1
    19    23    24    2
    20    24    25    1
    21    25    26   ar
    22    25    27   ar
    23    19    20   ar
    24    20    21   ar
    25    21    22    1
    26    13    14    1
    27    14    28    1
    28    28    29    1
    29    29    30    1
    30    29    31    1
    31    29    32    1
    32    14     2    1
    33    12     4    1
    34    21    15   ar
    35    12     8    1
@<TRIPOS>MOLECULE
*****
 32 35 0 0 0
SMALL
GASTEIGER

@<TRIPOS>ATOM
      1 C         144.1076  138.4189  160.9160 C.3     1  UNL1        0.0177
      2 C         143.4392  139.6811  161.3744 C.3     1  UNL1        0.0623
      3 C         143.2846  140.8343  160.4277 C.3     1  UNL1        0.0384
      4 C         142.6162  142.0965  160.8861 C.2     1  UNL1       -0.0343
      5 C         142.1024  142.2055  162.2911 C.2     1  UNL1       -0.0106
      6 C         141.4340  143.4677  162.7494 C.2     1  UNL1       -0.0020
      7 C         141.2794  144.6209  161.8028 C.2     1  UNL1        0.0169
      8 C         141.7932  144.5119  160.3977 C.2     1  UNL1        0.0896
      9 N         141.7838  145.4754  159.2481 N.2     1  UNL1       -0.1520
     10 N         142.4464  144.8086  158.0792 N.2     1  UNL1       -0.1507
     11 C         142.8653  143.4330  158.5064 C.2     1  UNL1        0.1054
     12 C         142.4616  143.2497  159.9394 C.3     1  UNL1        0.1032
     13 C         142.2570  141.0523  163.2378 C.3     1  UNL1        0.1069
     14 N         142.9254  139.7901  162.7794 N.3     1  UNL1       -0.2632
     15 C         141.7433  141.1613  164.6428 C.ar    1  UNL1        0.0512
     16 C         140.3108  140.8346  164.9451 C.ar    1  UNL1        0.1399
     17 F         139.3921  140.3989  163.8423 F       1  UNL1       -0.2044
     18 C         139.7970  140.9436  166.3502 C.ar    1  UNL1        0.0295
     19 C         140.7158  141.3794  167.4530 C.ar    1  UNL1        0.0045
     20 C         142.1481  141.7060  167.1507 C.ar    1  UNL1        0.0295
     21 C         142.6619  141.5970  165.7456 C.ar    1  UNL1        0.1399
     22 F         144.0944  141.9237  165.4434 F       1  UNL1       -0.2044
     23 C         140.2020  141.4884  168.8580 C.2     1  UNL1        0.0013
     24 C         140.4896  142.7174  169.6685 C.2     1  UNL1        0.0151
     25 C         139.9758  142.8264  171.0735 C.2     1  UNL1        0.0729
     26 O         140.6026  142.0124  172.1665 O.co2   1  UNL1       -0.5446
     27 O         138.8353  143.7494  171.3854 O.co2   1  UNL1       -0.5446
     28 C         143.0800  138.6368  163.7261 C.3     1  UNL1        0.1398
     29 C         141.8744  137.8600  164.1651 C.3     1  UNL1        0.2786
     30 C         140.6687  137.0831  164.6041 C.3     1  UNL1        0.0737
     31 F         141.4714  137.6756  162.7321 F       1  UNL1       -0.2028
     32 F         142.2773  138.0444  165.5981 F       1  UNL1       -0.2028
@<TRIPOS>UNITY_ATOM_ATTR
26 1
charge -1
@<TRIPOS>BOND
     1     2     1    1
     2     2     3    1
     3     3     4    1
     4     4     5    2
     5     5     6    1
     6     6     7    2
     7     7     8    1
     8     8     9    2
     9     9    10    1
    10    10    11    2
    11    11    12    1
    12     5    13    1
    13    13    15    1
    14    15    16   ar
    15    16    17    1
    16    16    18   ar
    17    18    19   ar
    18    19    23    1
    19    23    24    2
    20    24    25    1
    21    25    26   ar
    22    25    27   ar
    23    19    20   ar
    24    20    21   ar
    25    21    22    1
    26    13    14    1
    27    14    28    1
    28    28    29    1
    29    29    30    1
    30    29    31    1
    31    29    32    1
    32    14     2    1
    33    12     4    1
    34    21    15   ar
    35    12     8    1
@<TRIPOS>MOLECULE
*****
 32 35 0 0 0
SMALL
GASTEIGER

@<TRIPOS>ATOM
      1 C         144.1257  138.4596  160.9057 C.3     1  UNL1        0.0177
      2 C         143.4455  139.7281  161.3281 C.3     1  UNL1        0.0623
      3 C         143.3152  140.8671  160.3608 C.3     1  UNL1        0.0384
      4 C         142.6350  142.1356  160.7830 C.2     1  UNL1       -0.0343
      5 C         142.0852  142.2651  162.1726 C.2     1  UNL1       -0.0106
      6 C         141.4051  143.5335  162.5949 C.2     1  UNL1       -0.0020
      7 C         141.2747  144.6726  161.6276 C.2     1  UNL1        0.0169
      8 C         141.8246  144.5431  160.2380 C.2     1  UNL1        0.0896
      9 N         141.8447  145.4894  159.0744 N.2     1  UNL1       -0.1520
     10 N         142.5373  144.8058  157.9330 N.2     1  UNL1       -0.1507
     11 C         142.9453  143.4369  158.3911 C.2     1  UNL1        0.1054
     12 C         142.5047  143.2746  159.8158 C.3     1  UNL1        0.1032
     13 C         142.2155  141.1260  163.1399 C.3     1  UNL1        0.1069
     14 N         142.8957  139.8576  162.7176 N.3     1  UNL1       -0.2632
     15 C         141.6657  141.2555  164.5294 C.ar    1  UNL1        0.0512
     16 C         142.5537  141.7147  165.6478 C.ar    1  UNL1        0.1399
     17 F         143.9917  142.0444  165.3765 F       1  UNL1       -0.2044
     18 C         142.0039  141.8442  167.0373 C.ar    1  UNL1        0.0295
     19 C         140.5658  141.5145  167.3086 C.ar    1  UNL1        0.0045
     20 C         139.6778  141.0553  166.1904 C.ar    1  UNL1        0.0295
     21 C         140.2277  140.9258  164.8008 C.ar    1  UNL1        0.1399
     22 F         139.3397  140.4666  163.6825 F       1  UNL1       -0.2044
     23 C         140.0160  141.6440  168.6981 C.2     1  UNL1        0.0013
     24 C         140.6091  142.6404  169.6495 C.2     1  UNL1        0.0151
     25 C         140.0593  142.7699  171.0391 C.2     1  UNL1        0.0729
     26 O         140.6738  141.9915  172.1644 O.co2   1  UNL1       -0.5446
     27 O         138.8948  143.6779  171.3032 O.co2   1  UNL1       -0.5446
     28 C         143.0260  138.7185  163.6849 C.3     1  UNL1        0.1398
     29 C         141.8094  137.9486  164.1054 C.3     1  UNL1        0.2786
     30 C         140.5926  137.1787  164.5258 C.3     1  UNL1        0.0737
     31 F         141.4278  137.7656  162.6663 F       1  UNL1       -0.2028
     32 F         142.1908  138.1316  165.5444 F       1  UNL1       -0.2028
@<TRIPOS>UNITY_ATOM_ATTR
26 1
charge -1
@<TRIPOS>BOND
     1     2     1    1
     2     2     3    1
     3     3     4    1
     4     4     5    2
     5     5     6    1
     6     6     7    2
     7     7     8    1
     8     8     9    2
     9     9    10    1
    10    10    11    2
    11    11    12    1
    12     5    13    1
    13    13    15    1
    14    15    16   ar
    15    16    17    1
    16    16    18   ar
    17    18    19   ar
    18    19    23    1
    19    23    24    2
    20    24    25    1
    21    25    26   ar
    22    25    27   ar
    23    19    20   ar
    24    20    21   ar
    25    21    22    1
    26    13    14    1
    27    14    28    1
    28    28    29    1
    29    29    30    1
    30    29    31    1
    31    29    32    1
    32    14     2    1
    33    12     4    1
    34    21    15   ar
    35    12     8    1
@<TRIPOS>MOLECULE
*****
 32 35 0 0 0
SMALL
GASTEIGER

@<TRIPOS>ATOM
      1 C         144.2104  138.4115  160.9257 C.3     1  UNL1        0.0177
      2 C         142.8407  138.9173  161.2694 C.3     1  UNL1        0.0623
      3 C         141.8043  139.0648  160.1951 C.3     1  UNL1        0.0384
      4 C         140.4346  139.5706  160.5387 C.2     1  UNL1       -0.0343
      5 C         140.1012  139.9288  161.9566 C.2     1  UNL1       -0.0106
      6 C         138.7316  140.4346  162.3003 C.2     1  UNL1       -0.0020
      7 C         137.6951  140.5821  161.2260 C.2     1  UNL1        0.0169
      8 C         138.0285  140.2239  159.8080 C.2     1  UNL1        0.0896
      9 N         137.2191  140.2645  158.5458 N.2     1  UNL1       -0.1520
     10 N         138.0887  139.7838  157.4220 N.2     1  UNL1       -0.1507
     11 C         139.4354  139.4461  157.9898 C.2     1  UNL1        0.1054
     12 C         139.3982  139.7181  159.4644 C.3     1  UNL1        0.1032
     13 C         141.1377  139.7813  163.0310 C.3     1  UNL1        0.1069
     14 N         142.5073  139.2755  162.6873 N.3     1  UNL1       -0.2632
     15 C         140.8043  140.1395  164.4489 C.ar    1  UNL1        0.0512
     16 C         140.2120  139.1087  165.3636 C.ar    1  UNL1        0.1399
     17 F         139.9530  137.7196  164.8603 F       1  UNL1       -0.2044
     18 C         139.8786  139.4670  166.7815 C.ar    1  UNL1        0.0295
     19 C         140.1377  140.8561  167.2848 C.ar    1  UNL1        0.0045
     20 C         140.7300  141.8869  166.3702 C.ar    1  UNL1        0.0295
     21 C         141.0633  141.5286  164.9522 C.ar    1  UNL1        0.1399
     22 F         141.6557  142.5594  164.0376 F       1  UNL1       -0.2044
     23 C         139.8043  141.2144  168.7027 C.2     1  UNL1        0.0013
     24 C         140.4708  142.3886  169.3561 C.2     1  UNL1        0.0151
     25 C         140.1374  142.7469  170.7740 C.2     1  UNL1        0.0729
     26 O         140.7519  141.9782  171.9061 O.co2   1  UNL1       -0.5446
     27 O         139.1896  143.8739  171.0598 O.co2   1  UNL1       -0.5446
     28 C         143.5438  139.1280  163.7617 C.3     1  UNL1        0.1398
     29 C         144.6215  140.1604  163.9110 C.3     1  UNL1        0.2786
     30 C         145.6992  141.1930  164.0602 C.3     1  UNL1        0.0737
     31 F         143.8410  141.1009  163.0412 F       1  UNL1       -0.2028
     32 F         145.4020  139.2201  164.7807 F       1  UNL1       -0.2028
@<TRIPOS>UNITY_ATOM_ATTR
26 1
charge -1
@<TRIPOS>BOND
     1     2     1    1
     2     2     3    1
     3     3     4    1
     4     4     5    2
     5     5     6    1
     6     6     7    2
     7     7     8    1
     8     8     9    2
     9     9    10    1
    10    10    11    2
    11    11    12    1
    12     5    13    1
    13    13    15    1
    14    15    16   ar
    15    16    17    1
    16    16    18   ar
    17    18    19   ar
    18    19    23    1
    19    23    24    2
    20    24    25    1
    21    25    26   ar
    22    25    27   ar
    23    19    20   ar
    24    20    21   ar
    25    21    22    1
    26    13    14    1
    27    14    28    1
    28    28    29    1
    29    29    30    1
    30    29    31    1
    31    29    32    1
    32    14     2    1
    33    12     4    1
    34    21    15   ar
    35    12     8    1
@<TRIPOS>MOLECULE
*****
 32 35 0 0 0
SMALL
GASTEIGER

@<TRIPOS>ATOM
      1 C         137.4882  138.7867  161.3446 C.3     1  UNL1        0.0177
      2 C         138.9184  139.1643  161.5934 C.3     1  UNL1        0.0623
      3 C         139.8998  139.1737  160.4590 C.3     1  UNL1        0.0384
      4 C         141.3300  139.5513  160.7077 C.2     1  UNL1       -0.0343
      5 C         141.7789  139.9194  162.0907 C.2     1  UNL1       -0.0106
      6 C         143.2091  140.2970  162.3394 C.2     1  UNL1       -0.0020
      7 C         144.1905  140.3064  161.2050 C.2     1  UNL1        0.0169
      8 C         143.7416  139.9383  159.8219 C.2     1  UNL1        0.0896
      9 N         144.4759  139.8580  158.5165 N.2     1  UNL1       -0.1520
     10 N         143.4995  139.4308  157.4609 N.2     1  UNL1       -0.1507
     11 C         142.1617  139.2471  158.1141 C.2     1  UNL1        0.1054
     12 C         142.3113  139.5607  159.5733 C.3     1  UNL1        0.1032
     13 C         140.7975  139.9100  163.2252 C.3     1  UNL1        0.1069
     14 N         139.3674  139.5324  162.9765 N.3     1  UNL1       -0.2632
     15 C         141.2464  140.2781  164.6082 C.ar    1  UNL1        0.0512
     16 C         141.1427  141.6992  165.0772 C.ar    1  UNL1        0.1399
     17 F         140.5901  142.7521  164.1629 F       1  UNL1       -0.2044
     18 C         141.5917  142.0673  166.4602 C.ar    1  UNL1        0.0295
     19 C         142.1443  141.0143  167.3745 C.ar    1  UNL1        0.0045
     20 C         142.2481  139.5933  166.9057 C.ar    1  UNL1        0.0295
     21 C         141.7991  139.2252  165.5225 C.ar    1  UNL1        0.1399
     22 F         141.9028  137.8041  165.0537 F       1  UNL1       -0.2044
     23 C         142.5933  141.3824  168.7576 C.2     1  UNL1        0.0013
     24 C         142.0680  142.6266  169.4102 C.2     1  UNL1        0.0151
     25 C         142.5169  142.9948  170.7933 C.2     1  UNL1        0.0729
     26 O         141.8832  142.3424  171.9861 O.co2   1  UNL1       -0.5446
     27 O         143.5997  144.0154  170.9836 O.co2   1  UNL1       -0.5446
     28 C         138.3859  139.5229  164.1109 C.3     1  UNL1        0.1398
     29 C         138.4046  138.4039  165.1094 C.3     1  UNL1        0.2786
     30 C         138.4232  137.2847  166.1081 C.3     1  UNL1        0.0737
     31 F         137.8311  139.3213  166.1484 F       1  UNL1       -0.2028
     32 F         138.9780  137.4864  164.0706 F       1  UNL1       -0.2028
@<TRIPOS>UNITY_ATOM_ATTR
26 1
charge -1
@<TRIPOS>BOND
     1     2     1    1
     2     2     3    1
     3     3     4    1
     4     4     5    2
     5     5     6    1
     6     6     7    2
     7     7     8    1
     8     8     9    2
     9     9    10    1
    10    10    11    2
    11    11    12    1
    12     5    13    1
    13    13    15    1
    14    15    16   ar
    15    16    17    1
    16    16    18   ar
    17    18    19   ar
    18    19    23    1
    19    23    24    2
    20    24    25    1
    21    25    26   ar
    22    25    27   ar
    23    19    20   ar
    24    20    21   ar
    25    21    22    1
    26    13    14    1
    27    14    28    1
    28    28    29    1
    29    29    30    1
    30    29    31    1
    31    29    32    1
    32    14     2    1
    33    12     4    1
    34    21    15   ar
    35    12     8    1
@<TRIPOS>MOLECULE
*****
 32 35 0 0 0
SMALL
GASTEIGER

@<TRIPOS>ATOM
      1 C         140.5400  145.0628  160.1029 C.3     1  UNL1        0.0177
      2 C         140.9434  143.7755  160.7589 C.3     1  UNL1        0.0623
      3 C         141.4879  142.6500  159.9302 C.3     1  UNL1        0.0384
      4 C         141.8912  141.3627  160.5861 C.2     1  UNL1       -0.0343
      5 C         141.7501  141.2009  162.0706 C.2     1  UNL1       -0.0106
      6 C         142.1534  139.9137  162.7265 C.2     1  UNL1       -0.0020
      7 C         142.6980  138.7881  161.8978 C.2     1  UNL1        0.0169
      8 C         142.8391  138.9499  160.4133 C.2     1  UNL1        0.0896
      9 N         143.3402  138.0229  159.3458 N.2     1  UNL1       -0.1520
     10 N         143.2466  138.7373  158.0302 N.2     1  UNL1       -0.1507
     11 C         142.6876  140.1058  158.2846 C.2     1  UNL1        0.1054
     12 C         142.4357  140.2372  159.7574 C.3     1  UNL1        0.1032
     13 C         141.2056  142.3265  162.8993 C.3     1  UNL1        0.1069
     14 N         140.8022  143.6137  162.2434 N.3     1  UNL1       -0.2632
     15 C         141.0644  142.1647  164.3838 C.ar    1  UNL1        0.0512
     16 C         139.8441  141.5044  164.9538 C.ar    1  UNL1        0.1399
     17 F         138.7649  141.0059  164.0390 F       1  UNL1       -0.2044
     18 C         139.7029  141.3426  166.4383 C.ar    1  UNL1        0.0295
     19 C         140.7823  141.8412  167.3530 C.ar    1  UNL1        0.0045
     20 C         142.0025  142.5015  166.7832 C.ar    1  UNL1        0.0295
     21 C         142.1437  142.6633  165.2985 C.ar    1  UNL1        0.1399
     22 F         143.3640  143.3236  164.7287 F       1  UNL1       -0.2044
     23 C         140.6411  141.6794  168.8375 C.2     1  UNL1        0.0013
     24 C         140.1907  140.3680  169.4096 C.2     1  UNL1        0.0151
     25 C         140.0495  140.2062  170.8941 C.2     1  UNL1        0.0729
     26 O         139.2007  139.1019  171.4509 O.co2   1  UNL1       -0.5446
     27 O         140.7573  141.1488  171.8219 O.co2   1  UNL1       -0.5446
     28 C         140.2577  144.7394  163.0721 C.3     1  UNL1        0.1398
     29 C         138.9829  144.5561  163.8410 C.3     1  UNL1        0.2786
     30 C         137.7081  144.3729  164.6100 C.3     1  UNL1        0.0737
     31 F         139.6582  145.0621  165.0811 F       1  UNL1       -0.2028
     32 F         138.3076  144.0502  162.6009 F       1  UNL1       -0.2028
@<TRIPOS>UNITY_ATOM_ATTR
26 1
charge -1
@<TRIPOS>BOND
     1     2     1    1
     2     2     3    1
     3     3     4    1
     4     4     5    2
     5     5     6    1
     6     6     7    2
     7     7     8    1
     8     8     9    2
     9     9    10    1
    10    10    11    2
    11    11    12    1
    12     5    13    1
    13    13    15    1
    14    15    16   ar
    15    16    17    1
    16    16    18   ar
    17    18    19   ar
    18    19    23    1
    19    23    24    2
    20    24    25    1
    21    25    26   ar
    22    25    27   ar
    23    19    20   ar
    24    20    21   ar
    25    21    22    1
    26    13    14    1
    27    14    28    1
    28    28    29    1
    29    29    30    1
    30    29    31    1
    31    29    32    1
    32    14     2    1
    33    12     4    1
    34    21    15   ar
    35    12     8    1
@<TRIPOS>MOLECULE
*****
 32 35 0 0 0
SMALL
GASTEIGER

@<TRIPOS>ATOM
      1 C         144.1492  138.1794  160.9376 C.3     1  UNL1        0.0177
      2 C         142.8707  138.9259  161.1787 C.3     1  UNL1        0.0623
      3 C         141.8336  139.0056  160.0980 C.3     1  UNL1        0.0384
      4 C         140.5550  139.7521  160.3390 C.2     1  UNL1       -0.0343
      5 C         140.3136  140.4189  161.6607 C.2     1  UNL1       -0.0106
      6 C         139.0352  141.1653  161.9018 C.2     1  UNL1       -0.0020
      7 C         137.9979  141.2451  160.8210 C.2     1  UNL1        0.0169
      8 C         138.2394  140.5783  159.4993 C.2     1  UNL1        0.0896
      9 N         137.4073  140.4866  158.2546 N.2     1  UNL1       -0.1520
     10 N         138.1716  139.6834  157.2443 N.2     1  UNL1       -0.1507
     11 C         139.4761  139.2787  157.8646 C.2     1  UNL1        0.1054
     12 C         139.5179  139.8318  159.2583 C.3     1  UNL1        0.1032
     13 C         141.3508  140.3392  162.7415 C.3     1  UNL1        0.1069
     14 N         142.6293  139.5927  162.5005 N.3     1  UNL1       -0.2632
     15 C         141.1094  141.0060  164.0633 C.ar    1  UNL1        0.0512
     16 C         141.6619  142.3759  164.3243 C.ar    1  UNL1        0.1399
     17 F         142.4559  143.0790  163.2636 F       1  UNL1       -0.2044
     18 C         141.4205  143.0427  165.6461 C.ar    1  UNL1        0.0295
     19 C         140.6265  142.3395  166.7069 C.ar    1  UNL1        0.0045
     20 C         140.0740  140.9697  166.4459 C.ar    1  UNL1        0.0295
     21 C         140.3154  140.3029  165.1240 C.ar    1  UNL1        0.1399
     22 F         139.7629  138.9330  164.8630 F       1  UNL1       -0.2044
     23 C         140.3851  143.0063  168.0286 C.2     1  UNL1        0.0013
     24 C         140.3777  142.1927  169.2888 C.2     1  UNL1        0.0151
     25 C         140.1362  142.8595  170.6106 C.2     1  UNL1        0.0729
     26 O         139.5632  144.2450  170.6581 O.co2   1  UNL1       -0.5446
     27 O         140.4679  142.1408  171.8848 O.co2   1  UNL1       -0.5446
     28 C         143.6665  139.5130  163.5812 C.3     1  UNL1        0.1398
     29 C         143.3513  138.8201  164.8736 C.3     1  UNL1        0.2786
     30 C         143.0360  138.1271  166.1661 C.3     1  UNL1        0.0737
     31 F         142.6968  137.7035  164.1154 F       1  UNL1       -0.2028
     32 F         144.0057  139.9366  165.6319 F       1  UNL1       -0.2028
@<TRIPOS>UNITY_ATOM_ATTR
26 1
charge -1
@<TRIPOS>BOND
     1     2     1    1
     2     2     3    1
     3     3     4    1
     4     4     5    2
     5     5     6    1
     6     6     7    2
     7     7     8    1
     8     8     9    2
     9     9    10    1
    10    10    11    2
    11    11    12    1
    12     5    13    1
    13    13    15    1
    14    15    16   ar
    15    16    17    1
    16    16    18   ar
    17    18    19   ar
    18    19    23    1
    19    23    24    2
    20    24    25    1
    21    25    26   ar
    22    25    27   ar
    23    19    20   ar
    24    20    21   ar
    25    21    22    1
    26    13    14    1
    27    14    28    1
    28    28    29    1
    29    29    30    1
    30    29    31    1
    31    29    32    1
    32    14     2    1
    33    12     4    1
    34    21    15   ar
    35    12     8    1
@<TRIPOS>MOLECULE
*****
 32 35 0 0 0
SMALL
GASTEIGER

@<TRIPOS>ATOM
      1 C         139.6250  146.4319  161.3674 C.3     1  UNL1        0.0177
      2 C         140.5798  145.2776  161.4443 C.3     1  UNL1        0.0623
      3 C         141.2828  144.8022  160.2074 C.3     1  UNL1        0.0384
      4 C         142.2377  143.6479  160.2842 C.2     1  UNL1       -0.0343
      5 C         142.4895  142.9690  161.5978 C.2     1  UNL1       -0.0106
      6 C         143.4443  141.8148  161.6746 C.2     1  UNL1       -0.0020
      7 C         144.1474  141.3394  160.4378 C.2     1  UNL1        0.0169
      8 C         143.8955  142.0182  159.1241 C.2     1  UNL1        0.0896
      9 N         144.4383  141.7733  157.7474 N.2     1  UNL1       -0.1520
     10 N         143.8189  142.7762  156.8198 N.2     1  UNL1       -0.1507
     11 C         142.8933  143.6410  157.6232 C.2     1  UNL1        0.1054
     12 C         142.9406  143.1725  159.0474 C.3     1  UNL1        0.1032
     13 C         141.7865  143.4445  162.8347 C.3     1  UNL1        0.1069
     14 N         140.8317  144.5987  162.7579 N.3     1  UNL1       -0.2632
     15 C         142.0384  142.7656  164.1483 C.ar    1  UNL1        0.0512
     16 C         143.1854  143.2024  165.0107 C.ar    1  UNL1        0.1399
     17 F         144.0806  144.3181  164.5593 F       1  UNL1       -0.2044
     18 C         143.4373  142.5235  166.3243 C.ar    1  UNL1        0.0295
     19 C         142.5421  141.4077  166.7756 C.ar    1  UNL1        0.0045
     20 C         141.3951  140.9709  165.9134 C.ar    1  UNL1        0.0295
     21 C         141.1432  141.6498  164.5997 C.ar    1  UNL1        0.1399
     22 F         139.9962  141.2130  163.7375 F       1  UNL1       -0.2044
     23 C         142.7939  140.7288  168.0893 C.2     1  UNL1        0.0013
     24 C         142.1497  141.2511  169.3391 C.2     1  UNL1        0.0151
     25 C         142.4016  140.5722  170.6527 C.2     1  UNL1        0.0729
     26 O         143.4257  139.4804  170.7485 O.co2   1  UNL1       -0.5446
     27 O         141.6293  140.9852  171.8706 O.co2   1  UNL1       -0.5446
     28 C         140.1287  145.0742  163.9948 C.3     1  UNL1        0.1398
     29 C         138.8126  144.4715  164.3880 C.3     1  UNL1        0.2786
     30 C         137.4965  143.8687  164.7812 C.3     1  UNL1        0.0737
     31 F         138.7633  143.7293  163.0854 F       1  UNL1       -0.2028
     32 F         138.8619  145.2136  165.6906 F       1  UNL1       -0.2028
@<TRIPOS>UNITY_ATOM_ATTR
26 1
charge -1
@<TRIPOS>BOND
     1     2     1    1
     2     2     3    1
     3     3     4    1
     4     4     5    2
     5     5     6    1
     6     6     7    2
     7     7     8    1
     8     8     9    2
     9     9    10    1
    10    10    11    2
    11    11    12    1
    12     5    13    1
    13    13    15    1
    14    15    16   ar
    15    16    17    1
    16    16    18   ar
    17    18    19   ar
    18    19    23    1
    19    23    24    2
    20    24    25    1
    21    25    26   ar
    22    25    27   ar
    23    19    20   ar
    24    20    21   ar
    25    21    22    1
    26    13    14    1
    27    14    28    1
    28    28    29    1
    29    29    30    1
    30    29    31    1
    31    29    32    1
    32    14     2    1
    33    12     4    1
    34    21    15   ar
    35    12     8    1
