@<TRIPOS>MOLECULE
*****
 35 40 0 0 0
SMALL
GASTEIGER

@<TRIPOS>ATOM
      1 N         141.6164  138.4826  161.4528 N.3     1  UNL1       -0.2695
      2 C         141.2494  138.4385  162.9066 C.3     1  UNL1        0.0939
      3 C         140.0428  139.1818  163.3984 C.3     1  UNL1        0.1107
      4 N         139.2034  139.9692  162.4366 N.am    1  UNL1       -0.2764
      5 C         137.9969  140.7124  162.9284 C.2     1  UNL1        0.2301
      6 O         137.1573  141.4999  161.9665 O.2     1  UNL1       -0.2745
      7 C         139.5703  140.0133  160.9828 C.3     1  UNL1        0.1107
      8 C         140.7768  139.2701  160.4909 C.3     1  UNL1        0.0939
      9 C         142.8228  137.7394  160.9610 C.3     1  UNL1        0.0769
     10 C         144.1962  138.2849  161.2183 C.3     1  UNL1        0.0437
     11 O         145.1901  143.7556  165.6584 O.2     1  UNL1       -0.2449
     12 C         144.7968  143.3950  164.2565 C.2     1  UNL1        0.3413
     13 O         144.4199  144.3589  163.1709 O.3     1  UNL1       -0.4404
     14 C         144.1016  143.5667  161.9376 C.3     1  UNL1        0.2356
     15 C         144.2817  142.1131  162.2611 C.ar    1  UNL1        0.0272
     16 C         144.1100  140.8724  161.4357 C.ar    1  UNL1       -0.0047
     17 C         144.3680  139.5256  162.0436 C.ar    1  UNL1       -0.0210
     18 C         144.7977  139.4195  163.4768 C.ar    1  UNL1       -0.0040
     19 C         144.9694  140.6602  164.3021 C.ar    1  UNL1        0.0059
     20 C         144.7114  142.0069  163.6943 C.ar    1  UNL1        0.0751
     21 C         137.6299  140.6683  164.3822 C.3     1  UNL1        0.1112
     22 C         138.6164  141.1184  165.4187 C.ar    1  UNL1       -0.0170
     23 C         139.2964  142.4481  165.2795 C.ar    1  UNL1       -0.0025
     24 C         140.2828  142.8982  166.3160 C.ar    1  UNL1        0.0189
     25 C         140.5892  142.0185  167.4917 C.ar    1  UNL1        0.0859
     26 C         139.9092  140.6888  167.6310 C.ar    1  UNL1        0.0147
     27 C         138.9228  140.2388  166.5945 C.ar    1  UNL1       -0.0245
     28 N         141.5757  142.4686  168.5283 N.ar    1  UNL1       -0.1886
     29 C         143.0480  142.1816  168.5277 C.ar    1  UNL1        0.2258
     30 N         143.6453  142.8204  169.7463 N.ar    1  UNL1       -0.1045
     31 N         142.5421  143.5021  170.5002 N.ar    1  UNL1       -0.0222
     32 N         141.2630  143.2847  169.7474 N.ar    1  UNL1       -0.0385
     33 C         138.2427  138.9090  166.7337 C.3     1  UNL1        0.0221
     34 C         137.2296  138.0324  167.4083 C.3     1  UNL1        0.0047
     35 C         138.0779  137.4826  166.3001 C.3     1  UNL1        0.0047
@<TRIPOS>BOND
     1    11    12    2
     2    12    13    1
     3    13    14    1
     4    14    15    1
     5    15    16   ar
     6    16    17   ar
     7    17    10    1
     8    10     9    1
     9     9     1    1
    10     1     2    1
    11     2     3    1
    12     3     4    1
    13     4     5   am
    14     5     6    2
    15     5    21    1
    16    21    22    1
    17    22    23   ar
    18    23    24   ar
    19    24    25   ar
    20    25    28    1
    21    28    29   ar
    22    29    30   ar
    23    30    31   ar
    24    31    32   ar
    25    25    26   ar
    26    26    27   ar
    27    27    33    1
    28    33    34    1
    29    34    35    1
    30     4     7    1
    31     7     8    1
    32    17    18   ar
    33    18    19   ar
    34    19    20   ar
    35    20    12    1
    36    20    15   ar
    37     8     1    1
    38    27    22   ar
    39    35    33    1
    40    32    28   ar
@<TRIPOS>MOLECULE
*****
 35 40 0 0 0
SMALL
GASTEIGER

@<TRIPOS>ATOM
      1 N         139.9453  139.1272  159.7056 N.3     1  UNL1       -0.2695
      2 C         139.8199  138.5804  161.0967 C.3     1  UNL1        0.0939
      3 C         139.1020  139.3699  162.1510 C.3     1  UNL1        0.1107
      4 N         138.5097  140.7061  161.8141 N.am    1  UNL1       -0.2764
      5 C         137.7919  141.4956  162.8684 C.2     1  UNL1        0.2301
      6 O         137.1995  142.8319  162.5316 O.2     1  UNL1       -0.2745
      7 C         138.6351  141.2530  160.4230 C.3     1  UNL1        0.1107
      8 C         139.3529  140.4635  159.3687 C.3     1  UNL1        0.0939
      9 C         140.6631  138.3378  158.6513 C.3     1  UNL1        0.0769
     10 C         142.1627  138.3154  158.6219 C.3     1  UNL1        0.0437
     11 O         145.9621  141.2562  163.8706 O.2     1  UNL1       -0.2449
     12 C         145.2234  141.5573  162.6002 C.2     1  UNL1        0.3413
     13 O         145.0707  142.9091  161.9684 O.3     1  UNL1       -0.4404
     14 C         144.2606  142.7466  160.7164 C.3     1  UNL1        0.2356
     15 C         143.9128  141.2944  160.5745 C.ar    1  UNL1        0.0272
     16 C         143.1311  140.5464  159.5356 C.ar    1  UNL1       -0.0047
     17 C         142.9444  139.0634  159.6609 C.ar    1  UNL1       -0.0210
     18 C         143.5395  138.3284  160.8252 C.ar    1  UNL1       -0.0040
     19 C         144.3212  139.0763  161.8642 C.ar    1  UNL1        0.0059
     20 C         144.5078  140.5593  161.7388 C.ar    1  UNL1        0.0751
     21 C         137.6664  140.9488  164.2595 C.3     1  UNL1        0.1112
     22 C         138.6628  141.3381  165.3111 C.ar    1  UNL1       -0.0170
     23 C         139.2411  142.7221  165.3205 C.ar    1  UNL1       -0.0025
     24 C         140.2374  143.1114  166.3721 C.ar    1  UNL1        0.0189
     25 C         140.6553  142.1168  167.4143 C.ar    1  UNL1        0.0859
     26 C         140.0769  140.7329  167.4049 C.ar    1  UNL1        0.0147
     27 C         139.0806  140.3435  166.3533 C.ar    1  UNL1       -0.0245
     28 N         141.6516  142.5062  168.4659 N.ar    1  UNL1       -0.1886
     29 C         143.1068  142.1424  168.4795 C.ar    1  UNL1        0.2258
     30 N         143.7222  142.7391  169.7105 N.ar    1  UNL1       -0.1045
     31 N         142.6473  143.4716  170.4576 N.ar    1  UNL1       -0.0222
     32 N         141.3677  143.3277  169.6884 N.ar    1  UNL1       -0.0385
     33 C         138.5022  138.9595  166.3439 C.3     1  UNL1        0.0221
     34 C         137.5572  137.9426  166.9122 C.3     1  UNL1        0.0047
     35 C         138.4452  137.5794  165.7592 C.3     1  UNL1        0.0047
@<TRIPOS>BOND
     1    11    12    2
     2    12    13    1
     3    13    14    1
     4    14    15    1
     5    15    16   ar
     6    16    17   ar
     7    17    10    1
     8    10     9    1
     9     9     1    1
    10     1     2    1
    11     2     3    1
    12     3     4    1
    13     4     5   am
    14     5     6    2
    15     5    21    1
    16    21    22    1
    17    22    23   ar
    18    23    24   ar
    19    24    25   ar
    20    25    28    1
    21    28    29   ar
    22    29    30   ar
    23    30    31   ar
    24    31    32   ar
    25    25    26   ar
    26    26    27   ar
    27    27    33    1
    28    33    34    1
    29    34    35    1
    30     4     7    1
    31     7     8    1
    32    17    18   ar
    33    18    19   ar
    34    19    20   ar
    35    20    12    1
    36    20    15   ar
    37     8     1    1
    38    27    22   ar
    39    35    33    1
    40    32    28   ar
@<TRIPOS>MOLECULE
*****
 35 40 0 0 0
SMALL
GASTEIGER

@<TRIPOS>ATOM
      1 N         142.2668  139.0866  159.9251 N.3     1  UNL1       -0.2695
      2 C         141.2952  138.5999  160.9591 C.3     1  UNL1        0.0939
      3 C         141.7038  138.5365  162.4011 C.3     1  UNL1        0.1107
      4 N         143.0837  138.9599  162.8090 N.am    1  UNL1       -0.2764
      5 C         143.4922  138.8966  164.2509 C.2     1  UNL1        0.2301
      6 O         144.8722  139.3200  164.6588 O.2     1  UNL1       -0.2745
      7 C         144.0552  139.4467  161.7749 C.3     1  UNL1        0.1107
      8 C         143.6468  139.5100  160.3330 C.3     1  UNL1        0.0939
      9 C         141.8583  139.1500  158.4832 C.3     1  UNL1        0.0769
     10 C         141.0137  140.2882  157.9922 C.3     1  UNL1        0.0437
     11 O         140.2738  146.1039  162.0249 O.2     1  UNL1       -0.2449
     12 C         139.6331  144.7970  161.6624 C.2     1  UNL1        0.3413
     13 O         138.3414  144.2664  162.2101 O.3     1  UNL1       -0.4404
     14 C         138.0816  142.9327  161.5746 C.3     1  UNL1        0.2356
     15 C         139.2127  142.6391  160.6342 C.ar    1  UNL1        0.0272
     16 C         139.4934  141.4714  159.7355 C.ar    1  UNL1       -0.0047
     17 C         140.7330  141.4559  158.8910 C.ar    1  UNL1       -0.0210
     18 C         141.6918  142.6081  158.9452 C.ar    1  UNL1       -0.0040
     19 C         141.4112  143.7758  159.8439 C.ar    1  UNL1        0.0059
     20 C         140.1716  143.7913  160.6884 C.ar    1  UNL1        0.0751
     21 C         142.5207  138.4099  165.2849 C.3     1  UNL1        0.1112
     22 C         141.9676  139.3635  166.3022 C.ar    1  UNL1       -0.0170
     23 C         142.8975  140.1269  167.1980 C.ar    1  UNL1       -0.0025
     24 C         142.3444  141.0805  168.2152 C.ar    1  UNL1        0.0189
     25 C         140.8615  141.2707  168.3365 C.ar    1  UNL1        0.0859
     26 C         139.9316  140.5074  167.4407 C.ar    1  UNL1        0.0147
     27 C         140.4847  139.5538  166.4235 C.ar    1  UNL1       -0.0245
     28 N         140.3085  142.2244  169.3538 N.ar    1  UNL1       -0.1886
     29 C         140.5439  143.7053  169.3936 C.ar    1  UNL1        0.2258
     30 N         139.8039  144.2608  170.5742 N.ar    1  UNL1       -0.1045
     31 N         139.1111  143.1231  171.2641 N.ar    1  UNL1       -0.0222
     32 N         139.4229  141.8646  170.5098 N.ar    1  UNL1       -0.0385
     33 C         139.5548  138.7904  165.5276 C.3     1  UNL1        0.0221
     34 C         138.7083  138.7198  164.2913 C.3     1  UNL1        0.0047
     35 C         138.7908  137.5387  165.2122 C.3     1  UNL1        0.0047
@<TRIPOS>BOND
     1    11    12    2
     2    12    13    1
     3    13    14    1
     4    14    15    1
     5    15    16   ar
     6    16    17   ar
     7    17    10    1
     8    10     9    1
     9     9     1    1
    10     1     2    1
    11     2     3    1
    12     3     4    1
    13     4     5   am
    14     5     6    2
    15     5    21    1
    16    21    22    1
    17    22    23   ar
    18    23    24   ar
    19    24    25   ar
    20    25    28    1
    21    28    29   ar
    22    29    30   ar
    23    30    31   ar
    24    31    32   ar
    25    25    26   ar
    26    26    27   ar
    27    27    33    1
    28    33    34    1
    29    34    35    1
    30     4     7    1
    31     7     8    1
    32    17    18   ar
    33    18    19   ar
    34    19    20   ar
    35    20    12    1
    36    20    15   ar
    37     8     1    1
    38    27    22   ar
    39    35    33    1
    40    32    28   ar
@<TRIPOS>MOLECULE
*****
 35 40 0 0 0
SMALL
GASTEIGER

@<TRIPOS>ATOM
      1 N         142.3597  138.8589  159.3605 N.3     1  UNL1       -0.2695
      2 C         141.3662  138.2812  160.3245 C.3     1  UNL1        0.0939
      3 C         141.6808  138.2393  161.7906 C.3     1  UNL1        0.1107
      4 N         142.9888  138.7750  162.2926 N.am    1  UNL1       -0.2764
      5 C         143.3033  138.7331  163.7586 C.2     1  UNL1        0.2301
      6 O         144.6114  139.2688  164.2607 O.2     1  UNL1       -0.2745
      7 C         143.9823  139.3527  161.3286 C.3     1  UNL1        0.1107
      8 C         143.6678  139.3946  159.8626 C.3     1  UNL1        0.0939
      9 C         142.0452  138.9008  157.8944 C.3     1  UNL1        0.0769
     10 C         142.9117  138.1594  156.9200 C.3     1  UNL1        0.0437
     11 O         140.6784  131.8885  154.4059 O.2     1  UNL1       -0.2449
     12 C         141.6135  132.5320  155.3865 C.2     1  UNL1        0.3413
     13 O         142.5471  131.8144  156.3157 O.3     1  UNL1       -0.4404
     14 C         143.2898  132.8450  157.1134 C.3     1  UNL1        0.2356
     15 C         142.8153  134.1994  156.6771 C.ar    1  UNL1        0.0272
     16 C         143.1928  135.5839  157.1139 C.ar    1  UNL1       -0.0047
     17 C         142.5342  136.7749  156.4833 C.ar    1  UNL1       -0.0210
     18 C         141.4982  136.5815  155.4159 C.ar    1  UNL1       -0.0040
     19 C         141.1207  135.1970  154.9792 C.ar    1  UNL1        0.0059
     20 C         141.7793  134.0060  155.6098 C.ar    1  UNL1        0.0751
     21 C         142.3098  138.1554  164.7226 C.3     1  UNL1        0.1112
     22 C         141.9426  138.9122  165.9647 C.ar    1  UNL1       -0.0170
     23 C         142.9687  139.1405  167.0347 C.ar    1  UNL1       -0.0025
     24 C         142.6016  139.8971  168.2767 C.ar    1  UNL1        0.0189
     25 C         141.2083  140.4255  168.4486 C.ar    1  UNL1        0.0859
     26 C         140.1822  140.1972  167.3787 C.ar    1  UNL1        0.0147
     27 C         140.5494  139.4405  166.1367 C.ar    1  UNL1       -0.0245
     28 N         140.8411  141.1822  169.6907 N.ar    1  UNL1       -0.1886
     29 C         140.0035  142.4251  169.7507 C.ar    1  UNL1        0.2258
     30 N         139.8918  142.8400  171.1878 N.ar    1  UNL1       -0.1045
     31 N         140.6604  141.8534  172.0161 N.ar    1  UNL1       -0.0222
     32 N         141.2471  140.8289  171.0908 N.ar    1  UNL1       -0.0385
     33 C         139.5232  139.2122  165.0666 C.3     1  UNL1        0.0221
     34 C         138.5050  139.7524  164.1067 C.3     1  UNL1        0.0047
     35 C         138.7642  138.2765  164.1731 C.3     1  UNL1        0.0047
@<TRIPOS>BOND
     1    11    12    2
     2    12    13    1
     3    13    14    1
     4    14    15    1
     5    15    16   ar
     6    16    17   ar
     7    17    10    1
     8    10     9    1
     9     9     1    1
    10     1     2    1
    11     2     3    1
    12     3     4    1
    13     4     5   am
    14     5     6    2
    15     5    21    1
    16    21    22    1
    17    22    23   ar
    18    23    24   ar
    19    24    25   ar
    20    25    28    1
    21    28    29   ar
    22    29    30   ar
    23    30    31   ar
    24    31    32   ar
    25    25    26   ar
    26    26    27   ar
    27    27    33    1
    28    33    34    1
    29    34    35    1
    30     4     7    1
    31     7     8    1
    32    17    18   ar
    33    18    19   ar
    34    19    20   ar
    35    20    12    1
    36    20    15   ar
    37     8     1    1
    38    27    22   ar
    39    35    33    1
    40    32    28   ar
@<TRIPOS>MOLECULE
*****
 35 40 0 0 0
SMALL
GASTEIGER

@<TRIPOS>ATOM
      1 N         141.8660  138.1582  158.8900 N.3     1  UNL1       -0.2695
      2 C         142.6715  137.9323  160.1351 C.3     1  UNL1        0.0939
      3 C         141.9979  137.9381  161.4754 C.3     1  UNL1        0.1107
      4 N         140.5190  138.1697  161.5706 N.am    1  UNL1       -0.2764
      5 C         139.8456  138.1755  162.9109 C.2     1  UNL1        0.2301
      6 O         138.3666  138.4071  163.0062 O.2     1  UNL1       -0.2745
      7 C         139.7136  138.3956  160.3256 C.3     1  UNL1        0.1107
      8 C         140.3870  138.3899  158.9853 C.3     1  UNL1        0.0939
      9 C         142.5395  138.1525  157.5498 C.3     1  UNL1        0.0769
     10 C         141.9631  137.3457  156.4242 C.3     1  UNL1        0.0437
     11 O         142.5067  130.2852  155.7266 O.2     1  UNL1       -0.2449
     12 C         143.0984  131.4792  156.4154 C.2     1  UNL1        0.3413
     13 O         144.2512  131.4620  157.3749 O.3     1  UNL1       -0.4404
     14 C         144.5065  132.8721  157.8180 C.3     1  UNL1        0.2356
     15 C         143.5115  133.7608  157.1323 C.ar    1  UNL1        0.0272
     16 C         143.2855  135.2427  157.1852 C.ar    1  UNL1       -0.0047
     17 C         142.1892  135.8637  156.3713 C.ar    1  UNL1       -0.0210
     18 C         141.3189  135.0028  155.5044 C.ar    1  UNL1       -0.0040
     19 C         141.5450  133.5209  155.4515 C.ar    1  UNL1        0.0059
     20 C         142.6412  132.8999  156.2654 C.ar    1  UNL1        0.0751
     21 C         140.6510  137.9496  164.1560 C.3     1  UNL1        0.1112
     22 C         140.4875  138.8667  165.3317 C.ar    1  UNL1       -0.0170
     23 C         139.1831  138.9132  166.0709 C.ar    1  UNL1       -0.0025
     24 C         139.0197  139.8303  167.2465 C.ar    1  UNL1        0.0189
     25 C         140.1606  140.7008  167.6830 C.ar    1  UNL1        0.0859
     26 C         141.4650  140.6542  166.9439 C.ar    1  UNL1        0.0147
     27 C         141.6284  139.7372  165.7682 C.ar    1  UNL1       -0.0245
     28 N         139.9971  141.6179  168.8588 N.ar    1  UNL1       -0.1886
     29 C         140.4675  143.0399  168.9398 C.ar    1  UNL1        0.2258
     30 N         140.0957  143.5749  170.2910 N.ar    1  UNL1       -0.1045
     31 N         139.3954  142.4834  171.0449 N.ar    1  UNL1       -0.0222
     32 N         139.3345  141.2740  170.1598 N.ar    1  UNL1       -0.0385
     33 C         142.9328  139.6906  165.0290 C.3     1  UNL1        0.0221
     34 C         144.3466  139.2015  164.9183 C.3     1  UNL1        0.0047
     35 C         143.7784  140.0990  163.8593 C.3     1  UNL1        0.0047
@<TRIPOS>BOND
     1    11    12    2
     2    12    13    1
     3    13    14    1
     4    14    15    1
     5    15    16   ar
     6    16    17   ar
     7    17    10    1
     8    10     9    1
     9     9     1    1
    10     1     2    1
    11     2     3    1
    12     3     4    1
    13     4     5   am
    14     5     6    2
    15     5    21    1
    16    21    22    1
    17    22    23   ar
    18    23    24   ar
    19    24    25   ar
    20    25    28    1
    21    28    29   ar
    22    29    30   ar
    23    30    31   ar
    24    31    32   ar
    25    25    26   ar
    26    26    27   ar
    27    27    33    1
    28    33    34    1
    29    34    35    1
    30     4     7    1
    31     7     8    1
    32    17    18   ar
    33    18    19   ar
    34    19    20   ar
    35    20    12    1
    36    20    15   ar
    37     8     1    1
    38    27    22   ar
    39    35    33    1
    40    32    28   ar
@<TRIPOS>MOLECULE
*****
 35 40 0 0 0
SMALL
GASTEIGER

@<TRIPOS>ATOM
      1 N         143.0821  142.7910  159.4952 N.3     1  UNL1       -0.2695
      2 C         143.4708  143.2761  160.8603 C.3     1  UNL1        0.0939
      3 C         143.8707  142.2926  161.9200 C.3     1  UNL1        0.1107
      4 N         143.8819  140.8241  161.6146 N.am    1  UNL1       -0.2764
      5 C         144.2818  139.8407  162.6742 C.2     1  UNL1        0.2301
      6 O         144.2930  138.3721  162.3688 O.2     1  UNL1       -0.2745
      7 C         143.4932  140.3390  160.2494 C.3     1  UNL1        0.1107
      8 C         143.0933  141.3224  159.1897 C.3     1  UNL1        0.0939
      9 C         142.6822  143.7744  158.4355 C.3     1  UNL1        0.0769
     10 C         141.3454  144.4511  158.5063 C.3     1  UNL1        0.0437
     11 O         137.5008  144.2872  164.4917 O.2     1  UNL1       -0.2449
     12 C         137.8250  143.5202  163.2440 C.2     1  UNL1        0.3413
     13 O         137.2669  142.1814  162.8620 O.3     1  UNL1       -0.4404
     14 C         137.8613  141.7912  161.5412 C.3     1  UNL1        0.2356
     15 C         138.7869  142.8889  161.1070 C.ar    1  UNL1        0.0272
     16 C         139.6472  143.0534  159.8893 C.ar    1  UNL1       -0.0047
     17 C         140.4850  144.2865  159.7241 C.ar    1  UNL1       -0.0210
     18 C         140.4626  145.3551  160.7765 C.ar    1  UNL1       -0.0040
     19 C         139.6023  145.1906  161.9942 C.ar    1  UNL1        0.0059
     20 C         138.7644  143.9575  162.1594 C.ar    1  UNL1        0.0751
     21 C         144.6705  140.3258  164.0394 C.3     1  UNL1        0.1112
     22 C         143.6945  140.2321  165.1746 C.ar    1  UNL1       -0.0170
     23 C         143.1585  138.8955  165.5946 C.ar    1  UNL1       -0.0025
     24 C         142.1826  138.8019  166.7298 C.ar    1  UNL1        0.0189
     25 C         141.7427  140.0448  167.4451 C.ar    1  UNL1        0.0859
     26 C         142.2786  141.3813  167.0252 C.ar    1  UNL1        0.0147
     27 C         143.2545  141.4750  165.8899 C.ar    1  UNL1       -0.0245
     28 N         140.7667  139.9511  168.5804 N.ar    1  UNL1       -0.1886
     29 C         141.1119  139.9240  170.0399 C.ar    1  UNL1        0.2258
     30 N         139.8328  139.8242  170.8170 N.ar    1  UNL1       -0.1045
     31 N         138.6970  139.7897  169.8377 N.ar    1  UNL1       -0.0222
     32 N         139.2742  139.8681  168.4554 N.ar    1  UNL1       -0.0385
     33 C         143.7906  142.8116  165.4700 C.3     1  UNL1        0.0221
     34 C         144.8609  143.8605  165.5344 C.3     1  UNL1        0.0047
     35 C         143.6486  144.0775  164.6781 C.3     1  UNL1        0.0047
@<TRIPOS>BOND
     1    11    12    2
     2    12    13    1
     3    13    14    1
     4    14    15    1
     5    15    16   ar
     6    16    17   ar
     7    17    10    1
     8    10     9    1
     9     9     1    1
    10     1     2    1
    11     2     3    1
    12     3     4    1
    13     4     5   am
    14     5     6    2
    15     5    21    1
    16    21    22    1
    17    22    23   ar
    18    23    24   ar
    19    24    25   ar
    20    25    28    1
    21    28    29   ar
    22    29    30   ar
    23    30    31   ar
    24    31    32   ar
    25    25    26   ar
    26    26    27   ar
    27    27    33    1
    28    33    34    1
    29    34    35    1
    30     4     7    1
    31     7     8    1
    32    17    18   ar
    33    18    19   ar
    34    19    20   ar
    35    20    12    1
    36    20    15   ar
    37     8     1    1
    38    27    22   ar
    39    35    33    1
    40    32    28   ar
@<TRIPOS>MOLECULE
*****
 35 40 0 0 0
SMALL
GASTEIGER

@<TRIPOS>ATOM
      1 N         142.0745  142.3398  159.8129 N.3     1  UNL1       -0.2695
      2 C         141.5767  141.2114  160.6666 C.3     1  UNL1        0.0939
      3 C         142.4239  140.6902  161.7894 C.3     1  UNL1        0.1107
      4 N         143.7688  141.2973  162.0585 N.am    1  UNL1       -0.2764
      5 C         144.6159  140.7761  163.1813 C.2     1  UNL1        0.2301
      6 O         145.9609  141.3833  163.4504 O.2     1  UNL1       -0.2745
      7 C         144.2666  142.4258  161.2048 C.3     1  UNL1        0.1107
      8 C         143.4195  142.9470  160.0820 C.3     1  UNL1        0.0939
      9 C         141.2274  142.8611  158.6902 C.3     1  UNL1        0.0769
     10 C         140.0666  143.7647  158.9835 C.3     1  UNL1        0.0437
     11 O         138.3606  145.4009  165.6950 O.2     1  UNL1       -0.2449
     12 C         138.1595  144.3821  164.6126 C.2     1  UNL1        0.3413
     13 O         137.3307  143.1363  164.7173 O.3     1  UNL1       -0.4404
     14 C         137.4108  142.4146  163.4048 C.3     1  UNL1        0.2356
     15 C         138.2891  143.2144  162.4889 C.ar    1  UNL1        0.0272
     16 C         138.7274  142.9925  161.0716 C.ar    1  UNL1       -0.0047
     17 C         139.6283  143.9866  160.4008 C.ar    1  UNL1       -0.0210
     18 C         140.0910  145.2026  161.1473 C.ar    1  UNL1       -0.0040
     19 C         139.6528  145.4245  162.5645 C.ar    1  UNL1        0.0059
     20 C         138.7518  144.4304  163.2353 C.ar    1  UNL1        0.0751
     21 C         144.1181  139.6476  164.0350 C.3     1  UNL1        0.1112
     22 C         143.2019  139.9281  165.1891 C.ar    1  UNL1       -0.0170
     23 C         143.5480  141.0017  166.1778 C.ar    1  UNL1       -0.0025
     24 C         142.6318  141.2820  167.3319 C.ar    1  UNL1        0.0189
     25 C         141.3695  140.4888  167.4972 C.ar    1  UNL1        0.0859
     26 C         141.0234  139.4152  166.5086 C.ar    1  UNL1        0.0147
     27 C         141.9396  139.1348  165.3545 C.ar    1  UNL1       -0.0245
     28 N         140.4532  140.7692  168.6514 N.ar    1  UNL1       -0.1886
     29 C         140.4872  141.9854  169.5288 C.ar    1  UNL1        0.2258
     30 N         139.3972  141.8505  170.5504 N.ar    1  UNL1       -0.1045
     31 N         138.6895  140.5510  170.3044 N.ar    1  UNL1       -0.0222
     32 N         139.3422  139.8827  169.1307 N.ar    1  UNL1       -0.0385
     33 C         141.5935  138.0612  164.3657 C.3     1  UNL1        0.0221
     34 C         141.1000  136.6754  164.0725 C.3     1  UNL1        0.0047
     35 C         141.4876  137.5874  162.9465 C.3     1  UNL1        0.0047
@<TRIPOS>BOND
     1    11    12    2
     2    12    13    1
     3    13    14    1
     4    14    15    1
     5    15    16   ar
     6    16    17   ar
     7    17    10    1
     8    10     9    1
     9     9     1    1
    10     1     2    1
    11     2     3    1
    12     3     4    1
    13     4     5   am
    14     5     6    2
    15     5    21    1
    16    21    22    1
    17    22    23   ar
    18    23    24   ar
    19    24    25   ar
    20    25    28    1
    21    28    29   ar
    22    29    30   ar
    23    30    31   ar
    24    31    32   ar
    25    25    26   ar
    26    26    27   ar
    27    27    33    1
    28    33    34    1
    29    34    35    1
    30     4     7    1
    31     7     8    1
    32    17    18   ar
    33    18    19   ar
    34    19    20   ar
    35    20    12    1
    36    20    15   ar
    37     8     1    1
    38    27    22   ar
    39    35    33    1
    40    32    28   ar
@<TRIPOS>MOLECULE
*****
 35 40 0 0 0
SMALL
GASTEIGER

@<TRIPOS>ATOM
      1 N         141.6871  138.4237  161.6794 N.3     1  UNL1       -0.2695
      2 C         141.3970  138.4030  163.1509 C.3     1  UNL1        0.0939
      3 C         140.1764  139.0926  163.6845 C.3     1  UNL1        0.1107
      4 N         139.2459  139.8027  162.7465 N.am    1  UNL1       -0.2764
      5 C         138.0253  140.4922  163.2801 C.2     1  UNL1        0.2301
      6 O         137.0947  141.2024  162.3422 O.2     1  UNL1       -0.2745
      7 C         139.5359  139.8234  161.2750 C.3     1  UNL1        0.1107
      8 C         140.7565  139.1339  160.7414 C.3     1  UNL1        0.0939
      9 C         142.9077  137.7342  161.1458 C.3     1  UNL1        0.0769
     10 C         144.2579  138.3672  161.3081 C.3     1  UNL1        0.0437
     11 O         145.1631  143.9008  165.6889 O.2     1  UNL1       -0.2449
     12 C         144.7572  143.5173  164.2968 C.2     1  UNL1        0.3413
     13 O         144.3336  144.4608  163.2104 O.3     1  UNL1       -0.4404
     14 C         144.0182  143.6495  161.9888 C.3     1  UNL1        0.2356
     15 C         144.2469  142.2046  162.3202 C.ar    1  UNL1        0.0272
     16 C         144.0983  140.9527  161.5073 C.ar    1  UNL1       -0.0047
     17 C         144.4065  139.6191  162.1210 C.ar    1  UNL1       -0.0210
     18 C         144.8632  139.5374  163.5474 C.ar    1  UNL1       -0.0040
     19 C         145.0118  140.7893  164.3602 C.ar    1  UNL1        0.0059
     20 C         144.7037  142.1228  163.7466 C.ar    1  UNL1        0.0751
     21 C         137.7352  140.4715  164.7517 C.3     1  UNL1        0.1112
     22 C         138.7691  140.9517  165.7267 C.ar    1  UNL1       -0.0170
     23 C         139.2761  140.0306  166.7966 C.ar    1  UNL1       -0.0025
     24 C         140.3099  140.5109  167.7715 C.ar    1  UNL1        0.0189
     25 C         140.8367  141.9121  167.6767 C.ar    1  UNL1        0.0859
     26 C         140.3297  142.8331  166.6068 C.ar    1  UNL1        0.0147
     27 C         139.2959  142.3529  165.6319 C.ar    1  UNL1       -0.0245
     28 N         141.8705  142.3923  168.6517 N.ar    1  UNL1       -0.1886
     29 C         141.6037  143.1552  169.9154 C.ar    1  UNL1        0.2258
     30 N         142.9209  143.4283  170.5789 N.ar    1  UNL1       -0.1045
     31 N         144.0019  142.8342  169.7253 N.ar    1  UNL1       -0.0222
     32 N         143.3527  142.1939  168.5343 N.ar    1  UNL1       -0.0385
     33 C         138.7888  143.2740  164.5620 C.3     1  UNL1        0.0221
     34 C         137.7129  144.1675  164.0198 C.3     1  UNL1        0.0047
     35 C         138.9865  143.9757  163.2511 C.3     1  UNL1        0.0047
@<TRIPOS>BOND
     1    11    12    2
     2    12    13    1
     3    13    14    1
     4    14    15    1
     5    15    16   ar
     6    16    17   ar
     7    17    10    1
     8    10     9    1
     9     9     1    1
    10     1     2    1
    11     2     3    1
    12     3     4    1
    13     4     5   am
    14     5     6    2
    15     5    21    1
    16    21    22    1
    17    22    23   ar
    18    23    24   ar
    19    24    25   ar
    20    25    28    1
    21    28    29   ar
    22    29    30   ar
    23    30    31   ar
    24    31    32   ar
    25    25    26   ar
    26    26    27   ar
    27    27    33    1
    28    33    34    1
    29    34    35    1
    30     4     7    1
    31     7     8    1
    32    17    18   ar
    33    18    19   ar
    34    19    20   ar
    35    20    12    1
    36    20    15   ar
    37     8     1    1
    38    27    22   ar
    39    35    33    1
    40    32    28   ar
@<TRIPOS>MOLECULE
*****
 35 40 0 0 0
SMALL
GASTEIGER

@<TRIPOS>ATOM
      1 N         143.2130  139.6875  159.6196 N.3     1  UNL1       -0.2695
      2 C         144.0318  140.4324  160.6318 C.3     1  UNL1        0.0939
      3 C         143.9363  140.0730  162.0850 C.3     1  UNL1        0.1107
      4 N         143.0219  138.9687  162.5259 N.am    1  UNL1       -0.2764
      5 C         142.9264  138.6093  163.9791 C.2     1  UNL1        0.2301
      6 O         142.0120  137.5050  164.4201 O.2     1  UNL1       -0.2745
      7 C         142.2031  138.2238  161.5137 C.3     1  UNL1        0.1107
      8 C         142.2986  138.5832  160.0606 C.3     1  UNL1        0.0939
      9 C         143.3085  140.0469  158.1664 C.3     1  UNL1        0.0769
     10 C         142.6377  141.2872  157.6549 C.3     1  UNL1        0.0437
     11 O         139.8313  146.0768  162.1064 O.2     1  UNL1       -0.2449
     12 C         139.5978  144.7391  161.4691 C.2     1  UNL1        0.3413
     13 O         138.3985  143.8620  161.6744 O.3     1  UNL1       -0.4404
     14 C         138.5822  142.6245  160.8468 C.3     1  UNL1        0.2356
     15 C         139.8950  142.7369  160.1300 C.ar    1  UNL1        0.0272
     16 C         140.6000  141.8180  159.1768 C.ar    1  UNL1       -0.0047
     17 C         141.9326  142.2061  158.6082 C.ar    1  UNL1       -0.0210
     18 C         142.5604  143.5130  158.9928 C.ar    1  UNL1       -0.0040
     19 C         141.8554  144.4318  159.9460 C.ar    1  UNL1        0.0059
     20 C         140.5227  144.0438  160.5146 C.ar    1  UNL1        0.0751
     21 C         143.7452  139.3542  164.9913 C.3     1  UNL1        0.1112
     22 C         143.0868  139.9364  166.2069 C.ar    1  UNL1       -0.0170
     23 C         142.8445  139.0775  167.4125 C.ar    1  UNL1       -0.0025
     24 C         142.1861  139.6597  168.6281 C.ar    1  UNL1        0.0189
     25 C         141.7700  141.1007  168.6380 C.ar    1  UNL1        0.0859
     26 C         142.0123  141.9597  167.4324 C.ar    1  UNL1        0.0147
     27 C         142.6707  141.3775  166.2169 C.ar    1  UNL1       -0.0245
     28 N         141.1116  141.6829  169.8536 N.ar    1  UNL1       -0.1886
     29 C         139.9929  142.6822  169.8571 C.ar    1  UNL1        0.2258
     30 N         139.6461  142.9849  171.2847 N.ar    1  UNL1       -0.1045
     31 N         140.5506  142.1727  172.1635 N.ar    1  UNL1       -0.0222
     32 N         141.4563  141.3680  171.2791 N.ar    1  UNL1       -0.0385
     33 C         142.9130  142.2364  165.0112 C.3     1  UNL1        0.0221
     34 C         142.4071  142.8928  163.7609 C.3     1  UNL1        0.0047
     35 C         143.8386  143.0677  164.1732 C.3     1  UNL1        0.0047
@<TRIPOS>BOND
     1    11    12    2
     2    12    13    1
     3    13    14    1
     4    14    15    1
     5    15    16   ar
     6    16    17   ar
     7    17    10    1
     8    10     9    1
     9     9     1    1
    10     1     2    1
    11     2     3    1
    12     3     4    1
    13     4     5   am
    14     5     6    2
    15     5    21    1
    16    21    22    1
    17    22    23   ar
    18    23    24   ar
    19    24    25   ar
    20    25    28    1
    21    28    29   ar
    22    29    30   ar
    23    30    31   ar
    24    31    32   ar
    25    25    26   ar
    26    26    27   ar
    27    27    33    1
    28    33    34    1
    29    34    35    1
    30     4     7    1
    31     7     8    1
    32    17    18   ar
    33    18    19   ar
    34    19    20   ar
    35    20    12    1
    36    20    15   ar
    37     8     1    1
    38    27    22   ar
    39    35    33    1
    40    32    28   ar
