@<TRIPOS>MOLECULE
*****
 22 25 0 0 0
SMALL
GASTEIGER

@<TRIPOS>ATOM
      1 C         141.3765  140.0151  165.1390 C.2     1  UNL1        0.0770
      2 N         142.7610  139.4414  165.0766 N.2     1  UNL1       -0.2460
      3 C         143.6653  140.4768  164.4764 C.2     1  UNL1        0.0773
      4 C         145.1339  140.4713  164.1711 C.2     1  UNL1        0.0185
      5 C         145.7767  141.6795  163.5571 C.2     1  UNL1       -0.0027
      6 C         144.9511  142.8932  163.2486 C.2     1  UNL1       -0.0213
      7 C         143.4825  142.8987  163.5540 C.3     1  UNL1        0.0536
      8 C         142.8397  141.6905  164.1679 C.2     1  UNL1       -0.0026
      9 C         141.4251  141.4052  164.5774 C.2     1  UNL1       -0.0057
     10 C         140.2632  142.3449  164.4480 C.3     1  UNL1        0.0393
     11 C         140.1110  143.4863  165.4091 C.3     1  UNL1        0.0072
     12 C         138.9490  144.4261  165.2797 C.3     1  UNL1        0.0175
     13 C         137.9392  144.2244  164.1891 C.3     1  UNL1        0.0686
     14 N         138.0913  143.0830  163.2278 N.3     1  UNL1       -0.2972
     15 C         139.2533  142.1433  163.3572 C.3     1  UNL1        0.0730
     16 H         138.1441  143.4896  162.2939 H       1  UNL1        0.1233
     17 C         137.7193  137.9320  166.7313 C.ar    1  UNL1        0.0000
     18 C         138.4279  137.3874  165.5266 C.ar    1  UNL1        0.0000
     19 C         139.6470  138.0817  164.9959 C.ar    1  UNL1        0.0015
     20 C         140.1574  139.3208  165.6697 C.ar    1  UNL1        0.0173
     21 C         139.4489  139.8654  166.8744 C.ar    1  UNL1        0.0015
     22 C         138.2298  139.1710  167.4052 C.ar    1  UNL1        0.0000
@<TRIPOS>BOND
     1    17    18   ar
     2    18    19   ar
     3    19    20   ar
     4    20     1    1
     5     1     2    2
     6     2     3    1
     7     3     4    2
     8     4     5    1
     9     5     6    2
    10     6     7    1
    11     7     8    1
    12     8     9    2
    13     9    10    1
    14    10    11    1
    15    11    12    1
    16    12    13    1
    17    13    14    1
    18    14    15    1
    19    20    21   ar
    20    21    22   ar
    21    22    17   ar
    22     9     1    1
    23    15    10    1
    24     8     3    1
    25    14    16    1
@<TRIPOS>MOLECULE
*****
 22 25 0 0 0
SMALL
GASTEIGER

@<TRIPOS>ATOM
      1 C         140.8044  140.9551  166.7752 C.2     1  UNL1        0.0770
      2 N         140.2313  139.5702  166.8351 N.2     1  UNL1       -0.2460
      3 C         139.8106  139.1822  165.4486 C.2     1  UNL1        0.0773
      4 C         139.1829  137.9341  164.9025 C.2     1  UNL1        0.0185
      5 C         138.8683  137.8311  163.4395 C.2     1  UNL1       -0.0027
      6 C         139.1814  138.9762  162.5226 C.2     1  UNL1       -0.0213
      7 C         139.8091  140.2243  163.0687 C.3     1  UNL1        0.0536
      8 C         140.1237  140.3273  164.5317 C.2     1  UNL1       -0.0026
      9 C         140.7379  141.4230  165.3516 C.2     1  UNL1       -0.0057
     10 C         141.2038  142.7531  164.8380 C.3     1  UNL1        0.0393
     11 C         142.6672  143.0044  164.6259 C.3     1  UNL1        0.0072
     12 C         143.1331  144.3345  164.1122 C.3     1  UNL1        0.0175
     13 C         142.1355  145.4133  163.8107 C.3     1  UNL1        0.0686
     14 N         140.6720  145.1620  164.0228 N.3     1  UNL1       -0.2972
     15 C         140.2061  143.8320  164.5364 C.3     1  UNL1        0.0730
     16 H         140.2149  145.3065  163.1225 H       1  UNL1        0.1233
     17 C         142.4366  143.2953  170.2551 C.ar    1  UNL1        0.0000
     18 C         143.3189  142.3301  169.5204 C.ar    1  UNL1        0.0000
     19 C         142.7749  141.5501  168.3604 C.ar    1  UNL1        0.0015
     20 C         141.3484  141.7352  167.9351 C.ar    1  UNL1        0.0173
     21 C         140.4660  142.7003  168.6698 C.ar    1  UNL1        0.0015
     22 C         141.0101  143.4804  169.8298 C.ar    1  UNL1        0.0000
@<TRIPOS>BOND
     1    17    18   ar
     2    18    19   ar
     3    19    20   ar
     4    20     1    1
     5     1     2    2
     6     2     3    1
     7     3     4    2
     8     4     5    1
     9     5     6    2
    10     6     7    1
    11     7     8    1
    12     8     9    2
    13     9    10    1
    14    10    11    1
    15    11    12    1
    16    12    13    1
    17    13    14    1
    18    14    15    1
    19    20    21   ar
    20    21    22   ar
    21    22    17   ar
    22     9     1    1
    23    15    10    1
    24     8     3    1
    25    14    16    1
@<TRIPOS>MOLECULE
*****
 22 25 0 0 0
SMALL
GASTEIGER

@<TRIPOS>ATOM
      1 C         139.3468  140.4626  166.2507 C.2     1  UNL1        0.0770
      2 N         139.2115  139.6958  167.5327 N.2     1  UNL1       -0.2460
      3 C         139.7977  140.5278  168.6346 C.2     1  UNL1        0.0773
      4 C         139.9426  140.2844  170.1076 C.2     1  UNL1        0.0185
      5 C         140.5852  141.3221  170.9795 C.2     1  UNL1       -0.0027
      6 C         141.0828  142.6031  170.3785 C.2     1  UNL1       -0.0213
      7 C         140.9379  142.8465  168.9055 C.3     1  UNL1        0.0536
      8 C         140.2953  141.8088  168.0336 C.2     1  UNL1       -0.0026
      9 C         140.0167  141.7685  166.5602 C.2     1  UNL1       -0.0057
     10 C         140.3495  142.8452  165.5702 C.3     1  UNL1        0.0393
     11 C         141.5884  142.7363  164.7319 C.3     1  UNL1        0.0072
     12 C         141.9212  143.8129  163.7419 C.3     1  UNL1        0.0175
     13 C         141.0150  144.9986  163.5902 C.3     1  UNL1        0.0686
     14 N         139.7759  145.1075  164.4286 N.3     1  UNL1       -0.2972
     15 C         139.4431  144.0308  165.4186 C.3     1  UNL1        0.0730
     16 H         138.9882  145.1679  163.7834 H       1  UNL1        0.1233
     17 C         137.9828  139.0868  162.1891 C.ar    1  UNL1        0.0000
     18 C         137.6073  140.4522  162.6836 C.ar    1  UNL1        0.0000
     19 C         138.0620  140.9108  164.0375 C.ar    1  UNL1        0.0015
     20 C         138.8921  140.0040  164.8968 C.ar    1  UNL1        0.0173
     21 C         139.2676  138.6386  164.4022 C.ar    1  UNL1        0.0015
     22 C         138.8129  138.1800  163.0484 C.ar    1  UNL1        0.0000
@<TRIPOS>BOND
     1    17    18   ar
     2    18    19   ar
     3    19    20   ar
     4    20     1    1
     5     1     2    2
     6     2     3    1
     7     3     4    2
     8     4     5    1
     9     5     6    2
    10     6     7    1
    11     7     8    1
    12     8     9    2
    13     9    10    1
    14    10    11    1
    15    11    12    1
    16    12    13    1
    17    13    14    1
    18    14    15    1
    19    20    21   ar
    20    21    22   ar
    21    22    17   ar
    22     9     1    1
    23    15    10    1
    24     8     3    1
    25    14    16    1
@<TRIPOS>MOLECULE
*****
 22 25 0 0 0
SMALL
GASTEIGER

@<TRIPOS>ATOM
      1 C         139.9095  139.6675  166.4871 C.2     1  UNL1        0.0770
      2 N         139.1271  139.6814  167.7667 N.2     1  UNL1       -0.2460
      3 C         140.0518  140.1003  168.8710 C.2     1  UNL1        0.0773
      4 C         139.8358  140.2903  170.3432 C.2     1  UNL1        0.0185
      5 C         140.9739  140.7252  171.2181 C.2     1  UNL1       -0.0027
      6 C         142.3279  140.9702  170.6209 C.2     1  UNL1       -0.0213
      7 C         142.5439  140.7802  169.1488 C.3     1  UNL1        0.0536
      8 C         141.4058  140.3452  168.2739 C.2     1  UNL1       -0.0026
      9 C         141.3179  140.0778  166.8005 C.2     1  UNL1       -0.0057
     10 C         142.4411  140.1992  165.8138 C.3     1  UNL1        0.0393
     11 C         143.1213  138.9667  165.2961 C.3     1  UNL1        0.0072
     12 C         144.2445  139.0882  164.3094 C.3     1  UNL1        0.0175
     13 C         144.6877  140.4423  163.8404 C.3     1  UNL1        0.0686
     14 N         144.0075  141.6749  164.3581 N.3     1  UNL1       -0.2972
     15 C         142.8843  141.5535  165.3448 C.3     1  UNL1        0.0730
     16 H         143.6348  142.1683  163.5469 H       1  UNL1        0.1233
     17 C         138.3124  138.5850  162.4217 C.ar    1  UNL1        0.0000
     18 C         138.1066  139.9681  162.9644 C.ar    1  UNL1        0.0000
     19 C         138.6390  140.3289  164.3196 C.ar    1  UNL1        0.0015
     20 C         139.3772  139.3067  165.1320 C.ar    1  UNL1        0.0173
     21 C         139.5829  137.9235  164.5892 C.ar    1  UNL1        0.0015
     22 C         139.0505  137.5627  163.2341 C.ar    1  UNL1        0.0000
@<TRIPOS>BOND
     1    17    18   ar
     2    18    19   ar
     3    19    20   ar
     4    20     1    1
     5     1     2    2
     6     2     3    1
     7     3     4    2
     8     4     5    1
     9     5     6    2
    10     6     7    1
    11     7     8    1
    12     8     9    2
    13     9    10    1
    14    10    11    1
    15    11    12    1
    16    12    13    1
    17    13    14    1
    18    14    15    1
    19    20    21   ar
    20    21    22   ar
    21    22    17   ar
    22     9     1    1
    23    15    10    1
    24     8     3    1
    25    14    16    1
@<TRIPOS>MOLECULE
*****
 22 25 0 0 0
SMALL
GASTEIGER

@<TRIPOS>ATOM
      1 C         141.5763  141.0514  166.8613 C.2     1  UNL1        0.0770
      2 N         142.7957  140.1826  166.7714 N.2     1  UNL1       -0.2460
      3 C         143.1209  139.9888  165.3200 C.2     1  UNL1        0.0773
      4 C         144.2128  139.2270  164.6291 C.2     1  UNL1        0.0185
      5 C         144.2863  139.2144  163.1310 C.2     1  UNL1       -0.0027
      6 C         143.2679  139.9635  162.3238 C.2     1  UNL1       -0.0213
      7 C         142.1760  140.7253  163.0147 C.3     1  UNL1        0.0536
      8 C         142.1025  140.7380  164.5128 C.2     1  UNL1       -0.0026
      9 C         141.1479  141.3947  165.4654 C.2     1  UNL1       -0.0057
     10 C         139.9714  142.2454  165.0882 C.3     1  UNL1        0.0393
     11 C         140.0929  143.7403  165.0980 C.3     1  UNL1        0.0072
     12 C         138.9164  144.5910  164.7208 C.3     1  UNL1        0.0175
     13 C         137.6183  143.9466  164.3338 C.3     1  UNL1        0.0686
     14 N         137.4968  142.4516  164.3240 N.3     1  UNL1       -0.2972
     15 C         138.6732  141.6010  164.7012 C.3     1  UNL1        0.0730
     16 H         137.2317  142.1840  163.3761 H       1  UNL1        0.1233
     17 C         139.5577  142.3928  170.6529 C.ar    1  UNL1        0.0000
     18 C         140.4847  143.3225  169.9274 C.ar    1  UNL1        0.0000
     19 C         141.1575  142.8753  168.6635 C.ar    1  UNL1        0.0015
     20 C         140.9034  141.4986  168.1252 C.ar    1  UNL1        0.0173
     21 C         139.9764  140.5689  168.8507 C.ar    1  UNL1        0.0015
     22 C         139.3036  141.0161  170.1145 C.ar    1  UNL1        0.0000
@<TRIPOS>BOND
     1    17    18   ar
     2    18    19   ar
     3    19    20   ar
     4    20     1    1
     5     1     2    2
     6     2     3    1
     7     3     4    2
     8     4     5    1
     9     5     6    2
    10     6     7    1
    11     7     8    1
    12     8     9    2
    13     9    10    1
    14    10    11    1
    15    11    12    1
    16    12    13    1
    17    13    14    1
    18    14    15    1
    19    20    21   ar
    20    21    22   ar
    21    22    17   ar
    22     9     1    1
    23    15    10    1
    24     8     3    1
    25    14    16    1
@<TRIPOS>MOLECULE
*****
 22 25 0 0 0
SMALL
GASTEIGER

@<TRIPOS>ATOM
      1 C         142.1258  139.5416  166.5420 C.2     1  UNL1        0.0770
      2 N         142.9380  139.2176  167.7607 N.2     1  UNL1       -0.2460
      3 C         142.3247  139.9301  168.9295 C.2     1  UNL1        0.0773
      4 C         142.6971  139.9816  170.3816 C.2     1  UNL1        0.0185
      5 C         141.8781  140.7975  171.3374 C.2     1  UNL1       -0.0027
      6 C         140.6867  141.5619  170.8411 C.2     1  UNL1       -0.0213
      7 C         140.3144  141.5104  169.3890 C.3     1  UNL1        0.0536
      8 C         141.1333  140.6945  168.4332 C.2     1  UNL1       -0.0026
      9 C         141.0104  140.4544  166.9577 C.2     1  UNL1       -0.0057
     10 C         139.9571  141.0267  166.0560 C.3     1  UNL1        0.0393
     11 C         140.0846  142.4337  165.5523 C.3     1  UNL1        0.0072
     12 C         139.0312  143.0060  164.6506 C.3     1  UNL1        0.0175
     13 C         137.8502  142.1711  164.2528 C.3     1  UNL1        0.0686
     14 N         137.7226  140.7641  164.7565 N.3     1  UNL1       -0.2972
     15 C         138.7760  140.1918  165.6581 C.3     1  UNL1        0.0730
     16 H         137.6780  140.1603  163.9356 H       1  UNL1        0.1233
     17 C         142.8993  138.0392  162.3714 C.ar    1  UNL1        0.0000
     18 C         141.6958  137.5624  163.1291 C.ar    1  UNL1        0.0000
     19 C         141.4380  138.0632  164.5193 C.ar    1  UNL1        0.0015
     20 C         142.3836  139.0408  165.1518 C.ar    1  UNL1        0.0173
     21 C         143.5872  139.5175  164.3941 C.ar    1  UNL1        0.0015
     22 C         143.8450  139.0167  163.0038 C.ar    1  UNL1        0.0000
@<TRIPOS>BOND
     1    17    18   ar
     2    18    19   ar
     3    19    20   ar
     4    20     1    1
     5     1     2    2
     6     2     3    1
     7     3     4    2
     8     4     5    1
     9     5     6    2
    10     6     7    1
    11     7     8    1
    12     8     9    2
    13     9    10    1
    14    10    11    1
    15    11    12    1
    16    12    13    1
    17    13    14    1
    18    14    15    1
    19    20    21   ar
    20    21    22   ar
    21    22    17   ar
    22     9     1    1
    23    15    10    1
    24     8     3    1
    25    14    16    1
@<TRIPOS>MOLECULE
*****
 22 25 0 0 0
SMALL
GASTEIGER

@<TRIPOS>ATOM
      1 C         142.8647  139.8722  166.2546 C.2     1  UNL1        0.0770
      2 N         142.7981  139.0434  167.5031 N.2     1  UNL1       -0.2460
      3 C         142.6115  139.9718  168.6664 C.2     1  UNL1        0.0773
      4 C         142.4797  139.7212  170.1394 C.2     1  UNL1        0.0185
      5 C         142.2990  140.8732  171.0829 C.2     1  UNL1       -0.0027
      6 C         142.2502  142.2758  170.5534 C.2     1  UNL1       -0.0213
      7 C         142.3821  142.5263  169.0804 C.3     1  UNL1        0.0536
      8 C         142.5627  141.3744  168.1369 C.2     1  UNL1       -0.0026
      9 C         142.7192  141.3128  166.6464 C.2     1  UNL1       -0.0057
     10 C         142.7285  142.4859  165.7116 C.3     1  UNL1        0.0393
     11 C         144.0218  143.1677  165.3766 C.3     1  UNL1        0.0072
     12 C         144.0311  144.3408  164.4419 C.3     1  UNL1        0.0175
     13 C         142.7471  144.8322  163.8422 C.3     1  UNL1        0.0686
     14 N         141.4536  144.1504  164.1772 N.3     1  UNL1       -0.2972
     15 C         141.4443  142.9773  165.1119 C.3     1  UNL1        0.0730
     16 H         141.0539  143.8279  163.2959 H       1  UNL1        0.1233
     17 C         143.4059  138.3108  162.0690 C.ar    1  UNL1        0.0000
     18 C         142.1777  137.9504  162.8510 C.ar    1  UNL1        0.0000
     19 C         141.9973  138.4708  164.2462 C.ar    1  UNL1        0.0015
     20 C         143.0451  139.3517  164.8594 C.ar    1  UNL1        0.0173
     21 C         144.2733  139.7122  164.0774 C.ar    1  UNL1        0.0015
     22 C         144.4537  139.1917  162.6822 C.ar    1  UNL1        0.0000
@<TRIPOS>BOND
     1    17    18   ar
     2    18    19   ar
     3    19    20   ar
     4    20     1    1
     5     1     2    2
     6     2     3    1
     7     3     4    2
     8     4     5    1
     9     5     6    2
    10     6     7    1
    11     7     8    1
    12     8     9    2
    13     9    10    1
    14    10    11    1
    15    11    12    1
    16    12    13    1
    17    13    14    1
    18    14    15    1
    19    20    21   ar
    20    21    22   ar
    21    22    17   ar
    22     9     1    1
    23    15    10    1
    24     8     3    1
    25    14    16    1
@<TRIPOS>MOLECULE
*****
 22 25 0 0 0
SMALL
GASTEIGER

@<TRIPOS>ATOM
      1 C         141.1846  142.3375  166.7589 C.2     1  UNL1        0.0770
      2 N         140.0402  143.3071  166.7473 N.2     1  UNL1       -0.2460
      3 C         139.8098  143.7354  165.3283 C.2     1  UNL1        0.0773
      4 C         138.8171  144.6763  164.7124 C.2     1  UNL1        0.0185
      5 C         138.8265  144.9121  163.2311 C.2     1  UNL1       -0.0027
      6 C         139.8285  144.2072  162.3657 C.2     1  UNL1       -0.0213
      7 C         140.8212  143.2664  162.9816 C.3     1  UNL1        0.0536
      8 C         140.8119  143.0305  164.4629 C.2     1  UNL1       -0.0026
      9 C         141.6615  142.1665  165.3470 C.2     1  UNL1       -0.0057
     10 C         142.7900  141.2862  164.8981 C.3     1  UNL1        0.0393
     11 C         144.1178  141.8891  164.5474 C.3     1  UNL1        0.0072
     12 C         145.2463  141.0088  164.0984 C.3     1  UNL1        0.0175
     13 C         145.0469  139.5253  164.0003 C.3     1  UNL1        0.0686
     14 N         143.7190  138.9223  164.3510 N.3     1  UNL1       -0.2972
     15 C         142.5905  139.8026  164.7999 C.3     1  UNL1        0.0730
     16 H         143.8884  138.2543  165.1030 H       1  UNL1        0.1233
     17 C         142.8878  140.2993  170.3913 C.ar    1  UNL1        0.0000
     18 C         141.7361  139.6813  169.6555 C.ar    1  UNL1        0.0000
     19 C         141.1684  140.3607  168.4447 C.ar    1  UNL1        0.0015
     20 C         141.7523  141.6581  167.9697 C.ar    1  UNL1        0.0173
     21 C         142.9041  142.2761  168.7055 C.ar    1  UNL1        0.0015
     22 C         143.4718  141.5967  169.9163 C.ar    1  UNL1        0.0000
@<TRIPOS>BOND
     1    17    18   ar
     2    18    19   ar
     3    19    20   ar
     4    20     1    1
     5     1     2    2
     6     2     3    1
     7     3     4    2
     8     4     5    1
     9     5     6    2
    10     6     7    1
    11     7     8    1
    12     8     9    2
    13     9    10    1
    14    10    11    1
    15    11    12    1
    16    12    13    1
    17    13    14    1
    18    14    15    1
    19    20    21   ar
    20    21    22   ar
    21    22    17   ar
    22     9     1    1
    23    15    10    1
    24     8     3    1
    25    14    16    1
@<TRIPOS>MOLECULE
*****
 22 25 0 0 0
SMALL
GASTEIGER

@<TRIPOS>ATOM
      1 C         139.8757  140.1325  166.4156 C.2     1  UNL1        0.0770
      2 N         139.4855  139.7117  167.8014 N.2     1  UNL1       -0.2460
      3 C         139.7274  140.8702  168.7231 C.2     1  UNL1        0.0773
      4 C         139.5260  141.0368  170.2001 C.2     1  UNL1        0.0185
      5 C         139.8643  142.3402  170.8608 C.2     1  UNL1       -0.0027
      6 C         140.4040  143.4770  170.0446 C.2     1  UNL1       -0.0213
      7 C         140.6055  143.3104  168.5675 C.3     1  UNL1        0.0536
      8 C         140.2672  142.0070  167.9068 C.2     1  UNL1       -0.0026
      9 C         140.3588  141.5511  166.4807 C.2     1  UNL1       -0.0057
     10 C         140.8477  142.3701  165.3230 C.3     1  UNL1        0.0393
     11 C         140.0696  143.5703  164.8717 C.3     1  UNL1        0.0072
     12 C         140.5585  144.3893  163.7139 C.3     1  UNL1        0.0175
     13 C         141.8256  144.0079  163.0075 C.3     1  UNL1        0.0686
     14 N         142.6037  142.8076  163.4588 N.3     1  UNL1       -0.2972
     15 C         142.1148  141.9886  164.6165 C.3     1  UNL1        0.0730
     16 H         143.5372  143.1372  163.7046 H       1  UNL1        0.1233
     17 C         139.6386  137.5864  162.7128 C.ar    1  UNL1        0.0000
     18 C         140.7867  137.4217  163.6640 C.ar    1  UNL1        0.0000
     19 C         140.8657  138.2704  164.8982 C.ar    1  UNL1        0.0015
     20 C         139.7967  139.2838  165.1813 C.ar    1  UNL1        0.0173
     21 C         138.6486  139.4485  164.2301 C.ar    1  UNL1        0.0015
     22 C         138.5696  138.5997  162.9958 C.ar    1  UNL1        0.0000
@<TRIPOS>BOND
     1    17    18   ar
     2    18    19   ar
     3    19    20   ar
     4    20     1    1
     5     1     2    2
     6     2     3    1
     7     3     4    2
     8     4     5    1
     9     5     6    2
    10     6     7    1
    11     7     8    1
    12     8     9    2
    13     9    10    1
    14    10    11    1
    15    11    12    1
    16    12    13    1
    17    13    14    1
    18    14    15    1
    19    20    21   ar
    20    21    22   ar
    21    22    17   ar
    22     9     1    1
    23    15    10    1
    24     8     3    1
    25    14    16    1
