@<TRIPOS>MOLECULE
*****
 34 38 0 0 0
SMALL
GASTEIGER

@<TRIPOS>ATOM
      1 C         141.0835  139.2063  160.0516 C.2     1  UNL1       -0.0144
      2 C         141.1483  138.4337  161.3358 C.2     1  UNL1        0.0893
      3 C         141.0822  138.9504  162.7425 C.2     1  UNL1        0.3693
      4 N         141.1842  137.8358  163.7410 N.2     1  UNL1        0.1553
      5 O         141.1391  138.1380  165.2096 O.2     1  UNL1       -0.2749
      6 C         140.9919  139.5548  165.6795 C.3     1  UNL1        0.2929
      7 C         140.8899  140.6695  164.6809 C.3     1  UNL1        0.2564
      8 N         140.9351  140.3672  163.2123 N.pl3   1  UNL1       -0.1835
      9 C         140.8177  141.6174  162.3917 C.3     1  UNL1        0.2029
     10 C         140.8184  141.7594  160.8985 C.3     1  UNL1        0.0555
     11 C         140.9367  140.6863  159.8571 C.3     1  UNL1        0.0309
     12 C         140.9468  139.8571  167.1480 C.ar    1  UNL1        0.0312
     13 C         142.2224  140.0350  167.9168 C.ar    1  UNL1        0.0316
     14 C         142.1772  140.3374  169.3853 C.ar    1  UNL1        0.1694
     15 F         143.4529  140.5153  170.1541 F       1  UNL1       -0.2017
     16 C         140.8562  140.4618  170.0850 C.ar    1  UNL1        0.1946
     17 F         140.8110  140.7641  171.5536 F       1  UNL1       -0.1994
     18 C         139.5805  140.2839  169.3164 C.ar    1  UNL1        0.1694
     19 F         138.2597  140.4083  170.0161 F       1  UNL1       -0.2017
     20 C         139.6258  139.9815  167.8478 C.ar    1  UNL1        0.0316
     21 C         140.0370  137.2796  156.7436 C.ar    1  UNL1        0.1547
     22 C         139.9423  138.0950  157.9992 C.ar    1  UNL1        0.0381
     23 C         141.1781  138.3909  158.7961 C.ar    1  UNL1       -0.0006
     24 C         142.5085  137.8715  158.3377 C.ar    1  UNL1        0.0014
     25 C         142.6033  137.0561  157.0822 C.ar    1  UNL1        0.0206
     26 C         141.3674  136.7602  156.2852 C.ar    1  UNL1        0.0994
     27 N         141.4621  135.9448  155.0298 N.ar    1  UNL1       -0.2839
     28 C         141.6943  136.4785  153.6472 C.ar    1  UNL1        0.1826
     29 N         141.7169  135.3161  152.6995 N.ar    1  UNL1       -0.2280
     30 C         141.4986  134.0641  153.4961 C.ar    1  UNL1        0.0786
     31 C         141.4469  132.6685  152.9487 C.3     1  UNL1        0.0538
     32 C         141.3411  134.4526  154.9364 C.ar    1  UNL1        0.0963
     33 C         138.3899  137.9000  154.8326 C.3     1  UNL1        0.2525
     34 O         138.8012  136.9836  155.9466 O.3     1  UNL1       -0.4700
@<TRIPOS>BOND
     1    33    34    1
     2    34    21    1
     3    21    22   ar
     4    22    23   ar
     5    23     1    1
     6     1     2    2
     7     2     3    1
     8     3     4    2
     9     4     5    1
    10     5     6    1
    11     6    12    1
    12    12    13   ar
    13    13    14   ar
    14    14    15    1
    15    14    16   ar
    16    16    17    1
    17    16    18   ar
    18    18    19    1
    19    18    20   ar
    20     6     7    1
    21     7     8    1
    22     8     9    1
    23     9    10    1
    24    10    11    1
    25    23    24   ar
    26    24    25   ar
    27    25    26   ar
    28    26    27    1
    29    27    28   ar
    30    28    29   ar
    31    29    30   ar
    32    30    31    1
    33    30    32   ar
    34    26    21   ar
    35    32    27   ar
    36    11     1    1
    37     8     3    1
    38    20    12   ar
@<TRIPOS>MOLECULE
*****
 34 38 0 0 0
SMALL
GASTEIGER

@<TRIPOS>ATOM
      1 C         141.1050  139.3421  160.1335 C.2     1  UNL1       -0.0144
      2 C         141.0375  138.5428  161.4012 C.2     1  UNL1        0.0893
      3 C         141.0062  139.0364  162.8174 C.2     1  UNL1        0.3693
      4 N         140.9377  137.8988  163.7926 N.2     1  UNL1        0.1553
      5 O         140.8975  138.1757  165.2663 O.2     1  UNL1       -0.2749
      6 C         140.9258  139.5903  165.7647 C.3     1  UNL1        0.2929
      7 C         140.9943  140.7279  164.7893 C.3     1  UNL1        0.2564
      8 N         141.0345  140.4508  163.3156 N.pl3   1  UNL1       -0.1835
      9 C         141.1012  141.7213  162.5209 C.3     1  UNL1        0.2029
     10 C         141.1561  141.8909  161.0315 C.3     1  UNL1        0.0555
     11 C         141.1577  140.8320  159.9691 C.3     1  UNL1        0.0309
     12 C         140.8857  139.8673  167.2383 C.ar    1  UNL1        0.0312
     13 C         142.1638  139.9906  168.0134 C.ar    1  UNL1        0.0316
     14 C         142.1236  140.2677  169.4871 C.ar    1  UNL1        0.1694
     15 F         143.4019  140.3910  170.2623 F       1  UNL1       -0.2017
     16 C         140.8051  140.4214  170.1855 C.ar    1  UNL1        0.1946
     17 F         140.7648  140.6985  171.6592 F       1  UNL1       -0.1994
     18 C         139.5268  140.2981  169.4104 C.ar    1  UNL1        0.1694
     19 F         138.2084  140.4519  170.1089 F       1  UNL1       -0.2017
     20 C         139.5671  140.0211  167.9368 C.ar    1  UNL1        0.0316
     21 C         142.4363  137.2234  157.0531 C.ar    1  UNL1        0.1547
     22 C         142.4194  138.0196  158.3243 C.ar    1  UNL1        0.0381
     23 C         141.1220  138.5459  158.8624 C.ar    1  UNL1       -0.0006
     24 C         139.8414  138.2759  158.1294 C.ar    1  UNL1        0.0014
     25 C         139.8582  137.4797  156.8583 C.ar    1  UNL1        0.0206
     26 C         141.1558  136.9534  156.3201 C.ar    1  UNL1        0.0994
     27 N         141.1727  136.1573  155.0490 N.ar    1  UNL1       -0.2839
     28 C         141.0269  136.7083  153.6615 C.ar    1  UNL1        0.1826
     29 N         141.1024  135.5618  152.6972 N.ar    1  UNL1       -0.2280
     30 C         141.2949  134.3023  153.4886 C.ar    1  UNL1        0.0786
     31 C         141.4217  132.9178  152.9255 C.3     1  UNL1        0.0538
     32 C         141.3383  134.6703  154.9422 C.ar    1  UNL1        0.0963
     33 C         144.4198  137.4060  155.3850 C.3     1  UNL1        0.2525
     34 O         143.7338  136.6971  156.5150 O.3     1  UNL1       -0.4700
@<TRIPOS>BOND
     1    33    34    1
     2    34    21    1
     3    21    22   ar
     4    22    23   ar
     5    23     1    1
     6     1     2    2
     7     2     3    1
     8     3     4    2
     9     4     5    1
    10     5     6    1
    11     6    12    1
    12    12    13   ar
    13    13    14   ar
    14    14    15    1
    15    14    16   ar
    16    16    17    1
    17    16    18   ar
    18    18    19    1
    19    18    20   ar
    20     6     7    1
    21     7     8    1
    22     8     9    1
    23     9    10    1
    24    10    11    1
    25    23    24   ar
    26    24    25   ar
    27    25    26   ar
    28    26    27    1
    29    27    28   ar
    30    28    29   ar
    31    29    30   ar
    32    30    31    1
    33    30    32   ar
    34    26    21   ar
    35    32    27   ar
    36    11     1    1
    37     8     3    1
    38    20    12   ar
@<TRIPOS>MOLECULE
*****
 34 38 0 0 0
SMALL
GASTEIGER

@<TRIPOS>ATOM
      1 C         141.4278  139.3631  160.2535 C.2     1  UNL1       -0.0144
      2 C         141.1063  138.5840  161.4944 C.2     1  UNL1        0.0893
      3 C         141.0967  139.0555  162.9184 C.2     1  UNL1        0.3693
      4 N         140.7175  137.9502  163.8589 N.2     1  UNL1        0.1553
      5 O         140.6479  138.2118  165.3343 O.2     1  UNL1       -0.2749
      6 C         140.9575  139.5786  165.8691 C.3     1  UNL1        0.2929
      7 C         141.3368  140.6838  164.9285 C.3     1  UNL1        0.2564
      8 N         141.4064  140.4222  163.4531 N.pl3   1  UNL1       -0.1835
      9 C         141.8021  141.6552  162.6960 C.3     1  UNL1        0.2029
     10 C         141.9858  141.8259  161.2171 C.3     1  UNL1        0.0555
     11 C         141.8192  140.8057  160.1301 C.3     1  UNL1        0.0309
     12 C         140.8880  139.8403  167.3445 C.ar    1  UNL1        0.0312
     13 C         139.5584  140.0434  168.0083 C.ar    1  UNL1        0.0316
     14 C         139.4889  140.3051  169.4837 C.ar    1  UNL1        0.1694
     15 F         138.1592  140.5082  170.1476 F       1  UNL1       -0.2017
     16 C         140.7491  140.3636  170.2951 C.ar    1  UNL1        0.1946
     17 F         140.6796  140.6253  171.7705 F       1  UNL1       -0.1994
     18 C         142.0788  140.1605  169.6314 C.ar    1  UNL1        0.1694
     19 F         143.3389  140.2190  170.4428 F       1  UNL1       -0.2017
     20 C         142.1482  139.8988  168.1560 C.ar    1  UNL1        0.0316
     21 C         142.5179  137.3113  157.0359 C.ar    1  UNL1        0.1547
     22 C         142.5985  138.0764  158.3237 C.ar    1  UNL1        0.0381
     23 C         141.3473  138.5981  158.9657 C.ar    1  UNL1       -0.0006
     24 C         140.0154  138.3548  158.3200 C.ar    1  UNL1        0.0014
     25 C         139.9348  137.5898  157.0322 C.ar    1  UNL1        0.0206
     26 C         141.1861  137.0681  156.3902 C.ar    1  UNL1        0.0994
     27 N         141.1054  136.3031  155.1025 N.ar    1  UNL1       -0.2839
     28 C         140.7411  136.8692  153.7620 C.ar    1  UNL1        0.1826
     29 N         140.7855  135.7537  152.7602 N.ar    1  UNL1       -0.2280
     30 C         141.1772  134.4982  153.4815 C.ar    1  UNL1        0.0786
     31 C         141.3423  133.1414  152.8636 C.3     1  UNL1        0.0538
     32 C         141.3750  134.8378  154.9291 C.ar    1  UNL1        0.0963
     33 C         144.4022  137.5439  155.2625 C.3     1  UNL1        0.2525
     34 O         143.7691  136.7896  156.3939 O.3     1  UNL1       -0.4700
@<TRIPOS>BOND
     1    33    34    1
     2    34    21    1
     3    21    22   ar
     4    22    23   ar
     5    23     1    1
     6     1     2    2
     7     2     3    1
     8     3     4    2
     9     4     5    1
    10     5     6    1
    11     6    12    1
    12    12    13   ar
    13    13    14   ar
    14    14    15    1
    15    14    16   ar
    16    16    17    1
    17    16    18   ar
    18    18    19    1
    19    18    20   ar
    20     6     7    1
    21     7     8    1
    22     8     9    1
    23     9    10    1
    24    10    11    1
    25    23    24   ar
    26    24    25   ar
    27    25    26   ar
    28    26    27    1
    29    27    28   ar
    30    28    29   ar
    31    29    30   ar
    32    30    31    1
    33    30    32   ar
    34    26    21   ar
    35    32    27   ar
    36    11     1    1
    37     8     3    1
    38    20    12   ar
@<TRIPOS>MOLECULE
*****
 34 38 0 0 0
SMALL
GASTEIGER

@<TRIPOS>ATOM
      1 C         139.7661  143.4022  160.5153 C.2     1  UNL1       -0.0144
      2 C         140.8035  143.6542  161.5692 C.2     1  UNL1        0.0893
      3 C         140.8601  143.1243  162.9714 C.2     1  UNL1        0.3693
      4 N         142.0738  143.6241  163.6974 N.2     1  UNL1        0.1553
      5 O         142.3208  143.2111  165.1181 O.2     1  UNL1       -0.2749
      6 C         141.3541  142.2985  165.8128 C.3     1  UNL1        0.2929
      7 C         140.1404  141.7987  165.0867 C.3     1  UNL1        0.2564
      8 N         139.8934  142.2117  163.6659 N.pl3   1  UNL1       -0.1835
      9 C         138.6313  141.6034  163.1300 C.3     1  UNL1        0.2029
     10 C         138.0242  141.7577  161.7671 C.3     1  UNL1        0.0555
     11 C         138.5293  142.5583  160.6035 C.3     1  UNL1        0.0309
     12 C         141.6011  141.8855  167.2335 C.ar    1  UNL1        0.0312
     13 C         142.8935  142.2438  167.9049 C.ar    1  UNL1        0.0316
     14 C         143.1405  141.8308  169.3257 C.ar    1  UNL1        0.1694
     15 F         144.4331  142.1892  169.9972 F       1  UNL1       -0.2017
     16 C         142.0947  141.0594  170.0749 C.ar    1  UNL1        0.1946
     17 F         142.3416  140.6464  171.4957 F       1  UNL1       -0.1994
     18 C         140.8022  140.7010  169.4036 C.ar    1  UNL1        0.1694
     19 F         139.7565  139.9297  170.1528 F       1  UNL1       -0.2017
     20 C         140.5553  141.1141  167.9828 C.ar    1  UNL1        0.0316
     21 C         139.4817  144.3131  156.6631 C.ar    1  UNL1        0.1547
     22 C         139.2516  143.6307  157.9790 C.ar    1  UNL1        0.0381
     23 C         139.9961  144.0846  159.1995 C.ar    1  UNL1       -0.0006
     24 C         140.9707  145.2209  159.1042 C.ar    1  UNL1        0.0014
     25 C         141.2008  145.9033  157.7884 C.ar    1  UNL1        0.0206
     26 C         140.4563  145.4494  156.5678 C.ar    1  UNL1        0.0994
     27 N         140.6864  146.1318  155.2520 N.ar    1  UNL1       -0.2839
     28 C         141.5298  145.6128  154.1253 C.ar    1  UNL1        0.1826
     29 N         141.4781  146.6133  153.0088 N.ar    1  UNL1       -0.2280
     30 C         140.6028  147.7504  153.4455 C.ar    1  UNL1        0.0786
     31 C         140.2745  148.9709  152.6376 C.3     1  UNL1        0.0538
     32 C         140.1135  147.4529  154.8319 C.ar    1  UNL1        0.0963
     33 C         137.3636  144.3918  155.1607 C.3     1  UNL1        0.2525
     34 O         138.7372  143.8593  155.4426 O.3     1  UNL1       -0.4700
@<TRIPOS>BOND
     1    33    34    1
     2    34    21    1
     3    21    22   ar
     4    22    23   ar
     5    23     1    1
     6     1     2    2
     7     2     3    1
     8     3     4    2
     9     4     5    1
    10     5     6    1
    11     6    12    1
    12    12    13   ar
    13    13    14   ar
    14    14    15    1
    15    14    16   ar
    16    16    17    1
    17    16    18   ar
    18    18    19    1
    19    18    20   ar
    20     6     7    1
    21     7     8    1
    22     8     9    1
    23     9    10    1
    24    10    11    1
    25    23    24   ar
    26    24    25   ar
    27    25    26   ar
    28    26    27    1
    29    27    28   ar
    30    28    29   ar
    31    29    30   ar
    32    30    31    1
    33    30    32   ar
    34    26    21   ar
    35    32    27   ar
    36    11     1    1
    37     8     3    1
    38    20    12   ar
@<TRIPOS>MOLECULE
*****
 34 38 0 0 0
SMALL
GASTEIGER

@<TRIPOS>ATOM
      1 C         139.8196  140.0317  160.7162 C.2     1  UNL1       -0.0144
      2 C         140.5222  139.6134  161.9739 C.2     1  UNL1        0.0893
      3 C         140.3457  140.1460  163.3651 C.2     1  UNL1        0.3693
      4 N         141.2486  139.4472  164.3379 N.2     1  UNL1        0.1553
      5 O         141.2291  139.8307  165.7879 O.2     1  UNL1       -0.2749
      6 C         140.3066  140.9131  166.2650 C.3     1  UNL1        0.2929
      7 C         139.4037  141.6119  165.2921 C.3     1  UNL1        0.2564
      8 N         139.4233  141.2282  163.8421 N.pl3   1  UNL1       -0.1835
      9 C         138.4494  142.0454  163.0459 C.3     1  UNL1        0.2029
     10 C         138.1575  141.9819  161.5760 C.3     1  UNL1        0.0555
     11 C         138.7673  141.0857  160.5392 C.3     1  UNL1        0.0309
     12 C         140.2870  141.2967  167.7150 C.ar    1  UNL1        0.0312
     13 C         140.5102  142.7246  168.1161 C.ar    1  UNL1        0.0316
     14 C         140.4906  143.1083  169.5662 C.ar    1  UNL1        0.1694
     15 F         140.7138  144.5363  169.9673 F       1  UNL1       -0.2017
     16 C         140.2477  142.0637  170.6150 C.ar    1  UNL1        0.1946
     17 F         140.2281  142.4473  172.0650 F       1  UNL1       -0.1994
     18 C         140.0245  140.6357  170.2139 C.ar    1  UNL1        0.1694
     19 F         139.7817  139.5913  171.2627 F       1  UNL1       -0.2017
     20 C         140.0442  140.2522  168.7639 C.ar    1  UNL1        0.0316
     21 C         139.6627  138.4423  157.0831 C.ar    1  UNL1        0.1547
     22 C         139.2593  139.1752  158.3283 C.ar    1  UNL1        0.0381
     23 C         140.2229  139.2989  159.4711 C.ar    1  UNL1       -0.0006
     24 C         141.5899  138.6898  159.3688 C.ar    1  UNL1        0.0014
     25 C         141.9933  137.9570  158.1237 C.ar    1  UNL1        0.0206
     26 C         141.0296  137.8333  156.9808 C.ar    1  UNL1        0.0994
     27 N         141.4329  137.1005  155.7358 N.ar    1  UNL1       -0.2839
     28 C         141.8823  137.7283  154.4496 C.ar    1  UNL1        0.1826
     29 N         142.1848  136.6270  153.4772 N.ar    1  UNL1       -0.2280
     30 C         141.9225  135.3187  154.1622 C.ar    1  UNL1        0.0786
     31 C         142.0946  133.9567  153.5575 C.3     1  UNL1        0.0538
     32 C         141.4578  135.6112  155.5581 C.ar    1  UNL1        0.0963
     33 C         138.4688  139.4836  155.0239 C.3     1  UNL1        0.2525
     34 O         138.6990  138.3186  155.9403 O.3     1  UNL1       -0.4700
@<TRIPOS>BOND
     1    33    34    1
     2    34    21    1
     3    21    22   ar
     4    22    23   ar
     5    23     1    1
     6     1     2    2
     7     2     3    1
     8     3     4    2
     9     4     5    1
    10     5     6    1
    11     6    12    1
    12    12    13   ar
    13    13    14   ar
    14    14    15    1
    15    14    16   ar
    16    16    17    1
    17    16    18   ar
    18    18    19    1
    19    18    20   ar
    20     6     7    1
    21     7     8    1
    22     8     9    1
    23     9    10    1
    24    10    11    1
    25    23    24   ar
    26    24    25   ar
    27    25    26   ar
    28    26    27    1
    29    27    28   ar
    30    28    29   ar
    31    29    30   ar
    32    30    31    1
    33    30    32   ar
    34    26    21   ar
    35    32    27   ar
    36    11     1    1
    37     8     3    1
    38    20    12   ar
@<TRIPOS>MOLECULE
*****
 34 38 0 0 0
SMALL
GASTEIGER

@<TRIPOS>ATOM
      1 C         141.6818  138.7644  160.3821 C.2     1  UNL1       -0.0144
      2 C         140.6487  139.0206  161.4392 C.2     1  UNL1        0.0893
      3 C         140.8483  139.2250  162.9118 C.2     1  UNL1        0.3693
      4 N         139.5432  139.4529  163.6152 N.2     1  UNL1        0.1553
      5 O         139.5198  139.6796  165.0978 O.2     1  UNL1       -0.2749
      6 C         140.8016  139.6782  165.8770 C.3     1  UNL1        0.2929
      7 C         142.1067  139.4503  165.1736 C.3     1  UNL1        0.2564
      8 N         142.1300  139.2237  163.6909 N.pl3   1  UNL1       -0.1835
      9 C         143.5288  139.0177  163.1900 C.3     1  UNL1        0.2029
     10 C         143.9913  138.7621  161.7862 C.3     1  UNL1        0.0555
     11 C         143.1692  138.6494  160.5366 C.3     1  UNL1        0.0309
     12 C         140.7783  139.9049  167.3596 C.ar    1  UNL1        0.0312
     13 C         142.0632  139.9467  168.1322 C.ar    1  UNL1        0.0316
     14 C         142.0400  140.1733  169.6149 C.ar    1  UNL1        0.1694
     15 F         143.3250  140.2151  170.3875 F       1  UNL1       -0.2017
     16 C         140.7316  140.3581  170.3247 C.ar    1  UNL1        0.1946
     17 F         140.7082  140.5847  171.8073 F       1  UNL1       -0.1994
     18 C         139.4465  140.3163  169.5522 C.ar    1  UNL1        0.1694
     19 F         138.1383  140.5011  170.2621 F       1  UNL1       -0.2017
     20 C         139.4699  140.0897  168.0695 C.ar    1  UNL1        0.0316
     21 C         139.3692  139.1327  157.1779 C.ar    1  UNL1        0.1547
     22 C         139.8932  139.2953  158.5741 C.ar    1  UNL1        0.0381
     23 C         141.1578  138.6018  158.9861 C.ar    1  UNL1       -0.0006
     24 C         141.8985  137.7457  158.0020 C.ar    1  UNL1        0.0014
     25 C         141.3746  137.5831  156.6059 C.ar    1  UNL1        0.0206
     26 C         140.1099  138.2766  156.1939 C.ar    1  UNL1        0.0994
     27 N         139.5860  138.1139  154.7979 N.ar    1  UNL1       -0.2839
     28 C         140.1612  138.7395  153.5618 C.ar    1  UNL1        0.1826
     29 N         139.3256  138.3094  152.3927 N.ar    1  UNL1       -0.2280
     30 C         138.2340  137.4180  152.9062 C.ar    1  UNL1        0.0786
     31 C         137.1684  136.7625  152.0786 C.3     1  UNL1        0.0538
     32 C         138.3949  137.2972  154.3927 C.ar    1  UNL1        0.0963
     33 C         138.0010  141.3192  156.8663 C.3     1  UNL1        0.2525
     34 O         138.1046  139.8262  156.7660 O.3     1  UNL1       -0.4700
@<TRIPOS>BOND
     1    33    34    1
     2    34    21    1
     3    21    22   ar
     4    22    23   ar
     5    23     1    1
     6     1     2    2
     7     2     3    1
     8     3     4    2
     9     4     5    1
    10     5     6    1
    11     6    12    1
    12    12    13   ar
    13    13    14   ar
    14    14    15    1
    15    14    16   ar
    16    16    17    1
    17    16    18   ar
    18    18    19    1
    19    18    20   ar
    20     6     7    1
    21     7     8    1
    22     8     9    1
    23     9    10    1
    24    10    11    1
    25    23    24   ar
    26    24    25   ar
    27    25    26   ar
    28    26    27    1
    29    27    28   ar
    30    28    29   ar
    31    29    30   ar
    32    30    31    1
    33    30    32   ar
    34    26    21   ar
    35    32    27   ar
    36    11     1    1
    37     8     3    1
    38    20    12   ar
@<TRIPOS>MOLECULE
*****
 34 38 0 0 0
SMALL
GASTEIGER

@<TRIPOS>ATOM
      1 C         142.8280  140.7096  160.4853 C.2     1  UNL1       -0.0144
      2 C         143.4326  140.9561  161.8358 C.2     1  UNL1        0.0893
      3 C         142.8215  140.7370  163.1882 C.2     1  UNL1        0.3693
      4 N         143.7717  141.1131  164.2862 N.2     1  UNL1        0.1553
      5 O         143.3555  140.9695  165.7201 O.2     1  UNL1       -0.2749
      6 C         141.9890  140.4499  166.0559 C.3     1  UNL1        0.2929
      7 C         141.0388  140.0738  164.9578 C.3     1  UNL1        0.2564
      8 N         141.4552  140.2174  163.5239 N.pl3   1  UNL1       -0.1835
      9 C         140.3622  139.7884  162.5904 C.3     1  UNL1        0.2029
     10 C         140.3658  139.7732  161.0905 C.3     1  UNL1        0.0555
     11 C         141.4632  140.1832  160.1537 C.3     1  UNL1        0.0309
     12 C         141.5726  140.3063  167.4898 C.ar    1  UNL1        0.0312
     13 C         140.1204  140.3711  167.8592 C.ar    1  UNL1        0.0316
     14 C         139.7040  140.2275  169.2932 C.ar    1  UNL1        0.1694
     15 F         138.2517  140.2923  169.6626 F       1  UNL1       -0.2017
     16 C         140.7401  140.0190  170.3576 C.ar    1  UNL1        0.1946
     17 F         140.3239  139.8754  171.7915 F       1  UNL1       -0.1994
     18 C         142.1925  139.9542  169.9882 C.ar    1  UNL1        0.1694
     19 F         143.2285  139.7457  171.0526 F       1  UNL1       -0.2017
     20 C         142.6087  140.0978  168.5543 C.ar    1  UNL1        0.0316
     21 C         144.7456  140.3585  157.0284 C.ar    1  UNL1        0.1547
     22 C         143.8693  140.0358  158.2024 C.ar    1  UNL1        0.0381
     23 C         143.7042  141.0322  159.3113 C.ar    1  UNL1       -0.0006
     24 C         144.4153  142.3514  159.2464 C.ar    1  UNL1        0.0014
     25 C         145.2916  142.6741  158.0725 C.ar    1  UNL1        0.0206
     26 C         145.4567  141.6776  156.9635 C.ar    1  UNL1        0.0994
     27 N         146.3329  142.0003  155.7896 N.ar    1  UNL1       -0.2839
     28 C         145.8653  142.4583  154.4399 C.ar    1  UNL1        0.1826
     29 N         147.0740  142.6627  153.5754 N.ar    1  UNL1       -0.2280
     30 C         148.2885  142.3311  154.3908 C.ar    1  UNL1        0.0786
     31 C         149.7113  142.3973  153.9203 C.3     1  UNL1        0.0538
     32 C         147.8305  141.9217  155.7593 C.ar    1  UNL1        0.0963
     33 C         143.7098  138.8741  155.1646 C.3     1  UNL1        0.2525
     34 O         144.9106  139.3621  155.9195 O.3     1  UNL1       -0.4700
@<TRIPOS>BOND
     1    33    34    1
     2    34    21    1
     3    21    22   ar
     4    22    23   ar
     5    23     1    1
     6     1     2    2
     7     2     3    1
     8     3     4    2
     9     4     5    1
    10     5     6    1
    11     6    12    1
    12    12    13   ar
    13    13    14   ar
    14    14    15    1
    15    14    16   ar
    16    16    17    1
    17    16    18   ar
    18    18    19    1
    19    18    20   ar
    20     6     7    1
    21     7     8    1
    22     8     9    1
    23     9    10    1
    24    10    11    1
    25    23    24   ar
    26    24    25   ar
    27    25    26   ar
    28    26    27    1
    29    27    28   ar
    30    28    29   ar
    31    29    30   ar
    32    30    31    1
    33    30    32   ar
    34    26    21   ar
    35    32    27   ar
    36    11     1    1
    37     8     3    1
    38    20    12   ar
@<TRIPOS>MOLECULE
*****
 34 38 0 0 0
SMALL
GASTEIGER

@<TRIPOS>ATOM
      1 C         141.6503  142.0131  161.8093 C.2     1  UNL1       -0.0144
      2 C         140.9668  143.3189  161.5304 C.2     1  UNL1        0.0893
      3 C         140.8146  144.0338  160.2205 C.2     1  UNL1        0.3693
      4 N         140.0581  145.3189  160.3823 N.2     1  UNL1        0.1553
      5 O         139.7954  146.1898  159.1896 O.2     1  UNL1       -0.2749
      6 C         140.2891  145.7755  157.8351 C.3     1  UNL1        0.2929
      7 C         141.0456  144.4904  157.6733 C.3     1  UNL1        0.2564
      8 N         141.3083  143.6195  158.8661 N.pl3   1  UNL1       -0.1835
      9 C         142.0762  142.3880  158.4870 C.3     1  UNL1        0.2029
     10 C         142.5400  141.2666  159.3687 C.3     1  UNL1        0.0555
     11 C         142.3504  141.0998  160.8473 C.3     1  UNL1        0.0309
     12 C         140.0265  146.6463  156.6424 C.ar    1  UNL1        0.0312
     13 C         139.1144  147.8308  156.7647 C.ar    1  UNL1        0.0316
     14 C         138.8517  148.7016  155.5719 C.ar    1  UNL1        0.1694
     15 F         137.9396  149.8861  155.6942 F       1  UNL1       -0.2017
     16 C         139.5012  148.3878  154.2567 C.ar    1  UNL1        0.1946
     17 F         139.2386  149.2585  153.0639 F       1  UNL1       -0.1994
     18 C         140.4134  147.2033  154.1343 C.ar    1  UNL1        0.1694
     19 F         141.0629  146.8896  152.8192 F       1  UNL1       -0.2017
     20 C         140.6760  146.3326  155.3272 C.ar    1  UNL1        0.0316
     21 C         140.7676  139.9372  165.0746 C.ar    1  UNL1        0.1547
     22 C         140.7867  140.3893  163.6444 C.ar    1  UNL1        0.0381
     23 C         141.6312  141.5610  163.2394 C.ar    1  UNL1       -0.0006
     24 C         142.4565  142.2806  164.2646 C.ar    1  UNL1        0.0014
     25 C         142.4374  141.8286  165.6948 C.ar    1  UNL1        0.0206
     26 C         141.5929  140.6568  166.0997 C.ar    1  UNL1        0.0994
     27 N         141.5737  140.2047  167.5298 N.ar    1  UNL1       -0.2839
     28 C         142.6009  139.3363  168.1938 C.ar    1  UNL1        0.1826
     29 N         142.1860  139.1366  169.6214 N.ar    1  UNL1       -0.2280
     30 C         140.9026  139.8815  169.8397 C.ar    1  UNL1        0.0786
     31 C         140.1327  139.9536  171.1251 C.3     1  UNL1        0.0538
     32 C         140.5241  140.5417  168.5470 C.ar    1  UNL1        0.0963
     33 C         138.4868  138.9718  165.8596 C.3     1  UNL1        0.2525
     34 O         139.9231  138.7655  165.4795 O.3     1  UNL1       -0.4700
@<TRIPOS>BOND
     1    33    34    1
     2    34    21    1
     3    21    22   ar
     4    22    23   ar
     5    23     1    1
     6     1     2    2
     7     2     3    1
     8     3     4    2
     9     4     5    1
    10     5     6    1
    11     6    12    1
    12    12    13   ar
    13    13    14   ar
    14    14    15    1
    15    14    16   ar
    16    16    17    1
    17    16    18   ar
    18    18    19    1
    19    18    20   ar
    20     6     7    1
    21     7     8    1
    22     8     9    1
    23     9    10    1
    24    10    11    1
    25    23    24   ar
    26    24    25   ar
    27    25    26   ar
    28    26    27    1
    29    27    28   ar
    30    28    29   ar
    31    29    30   ar
    32    30    31    1
    33    30    32   ar
    34    26    21   ar
    35    32    27   ar
    36    11     1    1
    37     8     3    1
    38    20    12   ar
@<TRIPOS>MOLECULE
*****
 34 38 0 0 0
SMALL
GASTEIGER

@<TRIPOS>ATOM
      1 C         142.1634  139.5094  160.5405 C.2     1  UNL1       -0.0144
      2 C         143.1317  140.6307  160.3053 C.2     1  UNL1        0.0893
      3 C         143.9414  140.9251  159.0773 C.2     1  UNL1        0.3693
      4 N         144.7889  142.1490  159.2602 N.2     1  UNL1        0.1553
      5 O         145.6779  142.6189  158.1471 O.2     1  UNL1       -0.2749
      6 C         145.7193  141.8648  156.8512 C.3     1  UNL1        0.2929
      7 C         144.8717  140.6407  156.6683 C.3     1  UNL1        0.2564
      8 N         143.9827  140.1709  157.7814 N.pl3   1  UNL1       -0.1835
      9 C         143.2247  138.9361  157.3933 C.3     1  UNL1        0.2029
     10 C         142.2380  138.1505  158.2052 C.3     1  UNL1        0.0555
     11 C         141.7657  138.4057  159.6059 C.3     1  UNL1        0.0309
     12 C         146.6082  142.3345  155.7380 C.ar    1  UNL1        0.0312
     13 C         146.0863  143.3041  154.7196 C.ar    1  UNL1        0.0316
     14 C         146.9753  143.7739  153.6065 C.ar    1  UNL1        0.1694
     15 F         146.4532  144.7435  152.5880 F       1  UNL1       -0.2017
     16 C         148.3863  143.2739  153.5119 C.ar    1  UNL1        0.1946
     17 F         149.2753  143.7436  152.3987 F       1  UNL1       -0.1994
     18 C         148.9084  142.3043  154.5303 C.ar    1  UNL1        0.1694
     19 F         150.3194  141.8043  154.4356 F       1  UNL1       -0.2017
     20 C         148.0193  141.8346  155.6434 C.ar    1  UNL1        0.0316
     21 C         140.1200  140.6825  163.7341 C.ar    1  UNL1        0.1547
     22 C         140.7775  140.7026  162.3859 C.ar    1  UNL1        0.0381
     23 C         141.5059  139.4894  161.8886 C.ar    1  UNL1       -0.0006
     24 C         141.5770  138.2561  162.7393 C.ar    1  UNL1        0.0014
     25 C         140.9196  138.2359  164.0875 C.ar    1  UNL1        0.0206
     26 C         140.1911  139.4492  164.5848 C.ar    1  UNL1        0.0994
     27 N         139.5337  139.4291  165.9329 N.ar    1  UNL1       -0.2839
     28 C         138.2886  138.6751  166.2955 C.ar    1  UNL1        0.1826
     29 N         137.9914  138.9395  167.7418 N.ar    1  UNL1       -0.2280
     30 C         139.0527  139.8568  168.2730 C.ar    1  UNL1        0.0786
     31 C         139.1446  140.3797  169.6760 C.3     1  UNL1        0.0538
     32 C         140.0059  140.1594  167.1551 C.ar    1  UNL1        0.0963
     33 C         138.8413  142.8928  163.2551 C.3     1  UNL1        0.2525
     34 O         139.3916  141.8958  164.2314 O.3     1  UNL1       -0.4700
@<TRIPOS>BOND
     1    33    34    1
     2    34    21    1
     3    21    22   ar
     4    22    23   ar
     5    23     1    1
     6     1     2    2
     7     2     3    1
     8     3     4    2
     9     4     5    1
    10     5     6    1
    11     6    12    1
    12    12    13   ar
    13    13    14   ar
    14    14    15    1
    15    14    16   ar
    16    16    17    1
    17    16    18   ar
    18    18    19    1
    19    18    20   ar
    20     6     7    1
    21     7     8    1
    22     8     9    1
    23     9    10    1
    24    10    11    1
    25    23    24   ar
    26    24    25   ar
    27    25    26   ar
    28    26    27    1
    29    27    28   ar
    30    28    29   ar
    31    29    30   ar
    32    30    31    1
    33    30    32   ar
    34    26    21   ar
    35    32    27   ar
    36    11     1    1
    37     8     3    1
    38    20    12   ar
