@<TRIPOS>MOLECULE
*****
 35 39 0 0 0
SMALL
GASTEIGER

@<TRIPOS>ATOM
      1 C         143.0567  141.2916  159.6723 C.ar    1  UNL1        0.0930
      2 C         143.7672  140.4436  158.6594 C.ar    1  UNL1        0.1067
      3 N         144.1044  139.1332  159.3068 N.ar    1  UNL1       -0.2252
      4 C         143.6024  139.1713  160.7197 C.ar    1  UNL1        0.1586
      5 N         143.6513  138.1637  161.8298 N.ar    1  UNL1       -0.3349
      6 C         143.0526  138.4902  163.1658 C.ar    1  UNL1        0.0945
      7 C         142.4050  139.8242  163.3918 C.ar    1  UNL1        0.1176
      8 N         142.3562  140.8318  162.2817 N.ar    1  UNL1       -0.2390
      9 C         142.9549  140.5054  160.9457 C.ar    1  UNL1        0.1210
     10 H         144.0763  137.2882  161.6815 H       1  UNL1        0.1675
     11 C         141.8063  140.1506  164.7279 C.ar    1  UNL1        0.1213
     12 N         142.3478  141.1375  165.7192 N.ar    1  UNL1       -0.1678
     13 N         141.4372  141.1443  166.9112 N.ar    1  UNL1       -0.2526
     14 C         140.3330  140.1615  166.6565 C.ar    1  UNL1        0.0815
     15 C         139.1492  139.7465  167.4789 C.ar    1  UNL1        0.0484
     16 C         138.1936  138.7174  166.9520 C.ar    1  UNL1        0.1416
     17 F         137.0098  138.3023  167.7745 F       1  UNL1       -0.2041
     18 C         138.4217  138.1032  165.6026 C.ar    1  UNL1        0.0298
     19 C         139.6055  138.5182  164.7802 C.ar    1  UNL1        0.0054
     20 C         140.5611  139.5474  165.3071 C.ar    1  UNL1        0.0383
     21 C         141.6019  141.9860  168.1418 C.3     1  UNL1        0.1079
     22 C         142.8773  141.9224  168.9288 C.3     1  UNL1        0.0415
     23 C         143.0420  142.7641  170.1594 C.3     1  UNL1        0.0706
     24 N         141.9313  143.6695  170.6029 N.3     1  UNL1       -0.2974
     25 C         140.6559  143.7331  169.8159 C.3     1  UNL1        0.0706
     26 C         140.4912  142.8914  168.5853 C.3     1  UNL1        0.0415
     27 H         142.3126  144.6153  170.6228 H       1  UNL1        0.1232
     28 N         141.2036  143.0821  160.0048 N.am    1  UNL1       -0.3039
     29 C         142.5390  142.6819  159.4508 C.2     1  UNL1        0.2488
     30 O         143.3564  143.6720  158.6754 O.2     1  UNL1       -0.2700
     31 H         140.6670  142.4323  160.5137 H       1  UNL1        0.1496
     32 C         140.0645  144.0349  158.4900 C.3     1  UNL1        0.0196
     33 C         140.6858  144.4724  159.7833 C.3     1  UNL1        0.0572
     34 C         141.3072  144.9098  161.0766 C.3     1  UNL1        0.0196
     35 C         140.1681  145.8626  159.5618 C.3     1  UNL1        0.0196
@<TRIPOS>BOND
     1    32    33    1
     2    33    34    1
     3    33    35    1
     4    33    28    1
     5    28    29   am
     6    29    30    2
     7    29     1    1
     8     1     2   ar
     9     2     3   ar
    10     3     4   ar
    11     4     5   ar
    12     5     6   ar
    13     6     7   ar
    14     7    11    1
    15    11    12   ar
    16    12    13   ar
    17    13    21    1
    18    21    22    1
    19    22    23    1
    20    23    24    1
    21    24    25    1
    22    25    26    1
    23    13    14   ar
    24    14    15   ar
    25    15    16   ar
    26    16    17    1
    27    16    18   ar
    28    18    19   ar
    29    19    20   ar
    30     7     8   ar
    31     8     9   ar
    32     9     1   ar
    33     9     4    1
    34    20    11   ar
    35    26    21    1
    36    20    14   ar
    37    28    31    1
    38     5    10    1
    39    24    27    1
@<TRIPOS>MOLECULE
*****
 35 39 0 0 0
SMALL
GASTEIGER

@<TRIPOS>ATOM
      1 C         142.1773  142.8050  160.0712 C.ar    1  UNL1        0.0930
      2 C         142.2337  144.0413  159.2235 C.ar    1  UNL1        0.1067
      3 N         141.8365  145.2080  160.0785 N.ar    1  UNL1       -0.2252
      4 C         141.5346  144.6928  161.4546 C.ar    1  UNL1        0.1586
      5 N         141.0951  145.3841  162.7111 N.ar    1  UNL1       -0.3349
      6 C         140.8662  144.5903  163.9630 C.ar    1  UNL1        0.0945
      7 C         141.0768  143.1052  163.9585 C.ar    1  UNL1        0.1176
      8 N         141.5163  142.4138  162.7020 N.ar    1  UNL1       -0.2390
      9 C         141.7452  143.2077  161.4500 C.ar    1  UNL1        0.1210
     10 H         140.9568  146.3589  162.7141 H       1  UNL1        0.1675
     11 C         140.8479  142.3113  165.2105 C.ar    1  UNL1        0.1213
     12 N         141.5729  142.4885  166.5117 N.ar    1  UNL1       -0.1678
     13 N         141.0269  141.4877  167.4865 N.ar    1  UNL1       -0.2526
     14 C         139.9646  140.6920  166.7878 C.ar    1  UNL1        0.0815
     15 C         139.0836  139.5696  167.2507 C.ar    1  UNL1        0.0484
     16 C         138.0921  138.9564  166.3070 C.ar    1  UNL1        0.1416
     17 F         137.2111  137.8339  166.7699 F       1  UNL1       -0.2041
     18 C         137.9815  139.4654  164.9003 C.ar    1  UNL1        0.0298
     19 C         138.8624  140.5877  164.4374 C.ar    1  UNL1        0.0054
     20 C         139.8539  141.2010  165.3812 C.ar    1  UNL1        0.0383
     21 C         141.4662  141.3133  168.9101 C.3     1  UNL1        0.1079
     22 C         140.8003  142.0972  170.0019 C.3     1  UNL1        0.0415
     23 C         141.2395  141.9227  171.4255 C.3     1  UNL1        0.0706
     24 N         142.3448  140.9644  171.7573 N.3     1  UNL1       -0.2974
     25 C         143.0107  140.1805  170.6654 C.3     1  UNL1        0.0706
     26 C         142.5714  140.3550  169.2419 C.3     1  UNL1        0.0415
     27 H         141.9589  140.2857  172.4137 H       1  UNL1        0.1232
     28 N         142.2728  140.2523  160.5455 N.am    1  UNL1       -0.3039
     29 C         142.4968  141.4109  159.6193 C.2     1  UNL1        0.2488
     30 O         143.0404  141.1751  158.2414 O.2     1  UNL1       -0.2700
     31 H         141.9160  140.4070  161.4499 H       1  UNL1        0.1496
     32 C         143.9842  139.0022  160.6340 C.3     1  UNL1        0.0196
     33 C         142.5923  138.8582  160.0936 C.3     1  UNL1        0.0572
     34 C         141.2004  138.7143  159.5533 C.3     1  UNL1        0.0196
     35 C         142.9119  137.4641  159.6418 C.3     1  UNL1        0.0196
@<TRIPOS>BOND
     1    32    33    1
     2    33    34    1
     3    33    35    1
     4    33    28    1
     5    28    29   am
     6    29    30    2
     7    29     1    1
     8     1     2   ar
     9     2     3   ar
    10     3     4   ar
    11     4     5   ar
    12     5     6   ar
    13     6     7   ar
    14     7    11    1
    15    11    12   ar
    16    12    13   ar
    17    13    21    1
    18    21    22    1
    19    22    23    1
    20    23    24    1
    21    24    25    1
    22    25    26    1
    23    13    14   ar
    24    14    15   ar
    25    15    16   ar
    26    16    17    1
    27    16    18   ar
    28    18    19   ar
    29    19    20   ar
    30     7     8   ar
    31     8     9   ar
    32     9     1   ar
    33     9     4    1
    34    20    11   ar
    35    26    21    1
    36    20    14   ar
    37    28    31    1
    38     5    10    1
    39    24    27    1
@<TRIPOS>MOLECULE
*****
 35 39 0 0 0
SMALL
GASTEIGER

@<TRIPOS>ATOM
      1 C         141.6807  139.6603  159.3587 C.ar    1  UNL1        0.0930
      2 C         142.7867  139.2981  158.4124 C.ar    1  UNL1        0.1067
      3 N         144.0401  139.1103  159.2146 N.ar    1  UNL1       -0.2252
      4 C         143.7088  139.3564  160.6567 C.ar    1  UNL1        0.1586
      5 N         144.5466  139.3149  161.9002 N.ar    1  UNL1       -0.3349
      6 C         143.9261  139.6134  163.2328 C.ar    1  UNL1        0.0945
      7 C         142.4678  139.9534  163.3219 C.ar    1  UNL1        0.1176
      8 N         141.6301  139.9949  162.0783 N.ar    1  UNL1       -0.2390
      9 C         142.2506  139.6964  160.7458 C.ar    1  UNL1        0.1210
     10 H         145.5037  139.0918  161.8418 H       1  UNL1        0.1675
     11 C         141.8473  140.2519  164.6546 C.ar    1  UNL1        0.1213
     12 N         142.3581  141.2366  165.6642 N.ar    1  UNL1       -0.1678
     13 N         141.4337  141.2114  166.8452 N.ar    1  UNL1       -0.2526
     14 C         140.3515  140.2111  166.5654 C.ar    1  UNL1        0.0815
     15 C         139.1663  139.7636  167.3685 C.ar    1  UNL1        0.0484
     16 C         138.2368  138.7231  166.8178 C.ar    1  UNL1        0.1416
     17 F         137.0515  138.2756  167.6209 F       1  UNL1       -0.2041
     18 C         138.4924  138.1301  165.4638 C.ar    1  UNL1        0.0298
     19 C         139.6776  138.5776  164.6607 C.ar    1  UNL1        0.0054
     20 C         140.6071  139.6181  165.2115 C.ar    1  UNL1        0.0383
     21 C         141.5678  142.0409  168.0878 C.3     1  UNL1        0.1079
     22 C         140.4428  142.9350  168.5178 C.3     1  UNL1        0.0415
     23 C         140.5769  143.7644  169.7603 C.3     1  UNL1        0.0706
     24 N         141.8361  143.6997  170.5729 N.3     1  UNL1       -0.2974
     25 C         142.9611  142.8056  170.1429 C.3     1  UNL1        0.0706
     26 C         142.8270  141.9762  168.9003 C.3     1  UNL1        0.0415
     27 H         141.5663  143.4032  171.5108 H       1  UNL1        0.1232
     28 N         139.9442  140.9100  157.8845 N.am    1  UNL1       -0.3039
     29 C         140.2550  139.9378  158.9838 C.2     1  UNL1        0.2488
     30 O         139.1402  139.2432  159.7080 O.2     1  UNL1       -0.2700
     31 H         140.6759  141.3660  157.4091 H       1  UNL1        0.1496
     32 C         138.5746  140.0924  156.4861 C.3     1  UNL1        0.0196
     33 C         138.5185  141.1875  157.5096 C.3     1  UNL1        0.0572
     34 C         138.4625  142.2826  158.5332 C.3     1  UNL1        0.0196
     35 C         137.0930  141.4650  157.1347 C.3     1  UNL1        0.0196
@<TRIPOS>BOND
     1    32    33    1
     2    33    34    1
     3    33    35    1
     4    33    28    1
     5    28    29   am
     6    29    30    2
     7    29     1    1
     8     1     2   ar
     9     2     3   ar
    10     3     4   ar
    11     4     5   ar
    12     5     6   ar
    13     6     7   ar
    14     7    11    1
    15    11    12   ar
    16    12    13   ar
    17    13    21    1
    18    21    22    1
    19    22    23    1
    20    23    24    1
    21    24    25    1
    22    25    26    1
    23    13    14   ar
    24    14    15   ar
    25    15    16   ar
    26    16    17    1
    27    16    18   ar
    28    18    19   ar
    29    19    20   ar
    30     7     8   ar
    31     8     9   ar
    32     9     1   ar
    33     9     4    1
    34    20    11   ar
    35    26    21    1
    36    20    14   ar
    37    28    31    1
    38     5    10    1
    39    24    27    1
@<TRIPOS>MOLECULE
*****
 35 39 0 0 0
SMALL
GASTEIGER

@<TRIPOS>ATOM
      1 C         138.8034  141.9198  159.4848 C.ar    1  UNL1        0.0930
      2 C         137.8896  141.1181  158.6060 C.ar    1  UNL1        0.1067
      3 N         137.3315  139.9909  159.4234 N.ar    1  UNL1       -0.2252
      4 C         137.9005  140.0960  160.8073 C.ar    1  UNL1        0.1586
      5 N         137.7077  139.2602  162.0378 N.ar    1  UNL1       -0.3349
      6 C         138.4247  139.6164  163.3063 C.ar    1  UNL1        0.0945
      7 C         139.3343  140.8085  163.3443 C.ar    1  UNL1        0.1176
      8 N         139.5270  141.6444  162.1137 N.ar    1  UNL1       -0.2390
      9 C         138.8101  141.2881  160.8453 C.ar    1  UNL1        0.1210
     10 H         137.1107  138.4777  162.0129 H       1  UNL1        0.1675
     11 C         140.0512  141.1648  164.6128 C.ar    1  UNL1        0.1213
     12 N         139.5458  140.9334  166.0060 N.ar    1  UNL1       -0.1678
     13 N         140.5816  141.4406  166.9651 N.ar    1  UNL1       -0.2526
     14 C         141.7272  141.9854  166.1646 C.ar    1  UNL1        0.0815
     15 C         143.0266  142.6146  166.5717 C.ar    1  UNL1        0.0484
     16 C         143.9981  143.0734  165.5251 C.ar    1  UNL1        0.1416
     17 F         145.2975  143.7027  165.9322 F       1  UNL1       -0.2041
     18 C         143.6703  142.9030  164.0712 C.ar    1  UNL1        0.0298
     19 C         142.3710  142.2737  163.6642 C.ar    1  UNL1        0.0054
     20 C         141.3995  141.8149  164.7109 C.ar    1  UNL1        0.0383
     21 C         140.4882  141.4086  168.4619 C.3     1  UNL1        0.1079
     22 C         140.5191  140.0960  169.1874 C.3     1  UNL1        0.0415
     23 C         140.4257  140.0640  170.6841 C.3     1  UNL1        0.0706
     24 N         140.3013  141.3445  171.4553 N.3     1  UNL1       -0.2974
     25 C         140.2704  142.6571  170.7298 C.3     1  UNL1        0.0706
     26 C         140.3638  142.6891  169.2331 C.3     1  UNL1        0.0415
     27 H         141.0944  141.3807  172.0958 H       1  UNL1        0.1232
     28 N         140.3761  143.1286  157.8069 N.am    1  UNL1       -0.3039
     29 C         139.5750  143.1391  159.0750 C.2     1  UNL1        0.2488
     30 O         139.5455  144.3688  159.9333 O.2     1  UNL1       -0.2700
     31 H         140.3955  142.3215  157.2435 H       1  UNL1        0.1496
     32 C         139.9609  144.8384  156.6219 C.3     1  UNL1        0.0196
     33 C         141.1478  144.3479  157.3971 C.3     1  UNL1        0.0572
     34 C         142.3345  143.8574  158.1724 C.3     1  UNL1        0.0196
     35 C         141.9193  145.5672  156.9874 C.3     1  UNL1        0.0196
@<TRIPOS>BOND
     1    32    33    1
     2    33    34    1
     3    33    35    1
     4    33    28    1
     5    28    29   am
     6    29    30    2
     7    29     1    1
     8     1     2   ar
     9     2     3   ar
    10     3     4   ar
    11     4     5   ar
    12     5     6   ar
    13     6     7   ar
    14     7    11    1
    15    11    12   ar
    16    12    13   ar
    17    13    21    1
    18    21    22    1
    19    22    23    1
    20    23    24    1
    21    24    25    1
    22    25    26    1
    23    13    14   ar
    24    14    15   ar
    25    15    16   ar
    26    16    17    1
    27    16    18   ar
    28    18    19   ar
    29    19    20   ar
    30     7     8   ar
    31     8     9   ar
    32     9     1   ar
    33     9     4    1
    34    20    11   ar
    35    26    21    1
    36    20    14   ar
    37    28    31    1
    38     5    10    1
    39    24    27    1
@<TRIPOS>MOLECULE
*****
 35 39 0 0 0
SMALL
GASTEIGER

@<TRIPOS>ATOM
      1 C         139.7681  141.0021  159.3238 C.ar    1  UNL1        0.0930
      2 C         138.6288  140.5135  158.4792 C.ar    1  UNL1        0.1067
      3 N         137.5229  140.0834  159.3968 N.ar    1  UNL1       -0.2252
      4 C         137.9786  140.3061  160.8084 C.ar    1  UNL1        0.1586
      5 N         137.3094  140.0652  162.1290 N.ar    1  UNL1       -0.3349
      6 C         138.0278  140.3921  163.4045 C.ar    1  UNL1        0.0945
      7 C         139.4154  140.9600  163.3594 C.ar    1  UNL1        0.1176
      8 N         140.0846  141.2009  162.0388 N.ar    1  UNL1       -0.2390
      9 C         139.3663  140.8739  160.7633 C.ar    1  UNL1        0.1210
     10 H         136.3986  139.6925  162.1586 H       1  UNL1        0.1675
     11 C         140.1338  141.2869  164.6350 C.ar    1  UNL1        0.1213
     12 N         139.6378  141.0074  166.0228 N.ar    1  UNL1       -0.1678
     13 N         140.6717  141.4985  166.9923 N.ar    1  UNL1       -0.2526
     14 C         141.8067  142.0815  166.2037 C.ar    1  UNL1        0.0815
     15 C         143.1000  142.7146  166.6239 C.ar    1  UNL1        0.0484
     16 C         144.0608  143.2168  165.5874 C.ar    1  UNL1        0.1416
     17 F         145.3541  143.8499  166.0077 F       1  UNL1       -0.2041
     18 C         143.7283  143.0861  164.1305 C.ar    1  UNL1        0.0298
     19 C         142.4351  142.4530  163.7102 C.ar    1  UNL1        0.0054
     20 C         141.4742  141.9507  164.7468 C.ar    1  UNL1        0.0383
     21 C         140.5857  141.4203  168.4878 C.3     1  UNL1        0.1079
     22 C         140.3012  142.6565  169.2883 C.3     1  UNL1        0.0415
     23 C         140.2152  142.5783  170.7838 C.3     1  UNL1        0.0706
     24 N         140.4137  141.2639  171.4787 N.3     1  UNL1       -0.2974
     25 C         140.6982  140.0277  170.6782 C.3     1  UNL1        0.0706
     26 C         140.7842  140.1059  169.1827 C.3     1  UNL1        0.0415
     27 H         139.5630  141.0807  172.0109 H       1  UNL1        0.1232
     28 N         142.3242  141.3481  159.6350 N.am    1  UNL1       -0.3039
     29 C         141.0790  141.5268  158.8178 C.2     1  UNL1        0.2488
     30 O         141.1449  142.2302  157.4947 O.2     1  UNL1       -0.2700
     31 H         142.2810  140.8865  160.5035 H       1  UNL1        0.1496
     32 C         143.8990  140.5605  158.4520 C.3     1  UNL1        0.0196
     33 C         143.6351  141.8728  159.1290 C.3     1  UNL1        0.0572
     34 C         143.3712  143.1851  159.8059 C.3     1  UNL1        0.0196
     35 C         144.9460  142.3975  158.6229 C.3     1  UNL1        0.0196
@<TRIPOS>BOND
     1    32    33    1
     2    33    34    1
     3    33    35    1
     4    33    28    1
     5    28    29   am
     6    29    30    2
     7    29     1    1
     8     1     2   ar
     9     2     3   ar
    10     3     4   ar
    11     4     5   ar
    12     5     6   ar
    13     6     7   ar
    14     7    11    1
    15    11    12   ar
    16    12    13   ar
    17    13    21    1
    18    21    22    1
    19    22    23    1
    20    23    24    1
    21    24    25    1
    22    25    26    1
    23    13    14   ar
    24    14    15   ar
    25    15    16   ar
    26    16    17    1
    27    16    18   ar
    28    18    19   ar
    29    19    20   ar
    30     7     8   ar
    31     8     9   ar
    32     9     1   ar
    33     9     4    1
    34    20    11   ar
    35    26    21    1
    36    20    14   ar
    37    28    31    1
    38     5    10    1
    39    24    27    1
@<TRIPOS>MOLECULE
*****
 35 39 0 0 0
SMALL
GASTEIGER

@<TRIPOS>ATOM
      1 C         142.2324  140.0777  158.6769 C.ar    1  UNL1        0.0930
      2 C         142.5990  138.9185  157.7983 C.ar    1  UNL1        0.1067
      3 N         142.9388  137.7557  158.6829 N.ar    1  UNL1       -0.2252
      4 C         142.7822  138.1963  160.1082 C.ar    1  UNL1        0.1586
      5 N         142.9808  137.4761  161.4089 N.ar    1  UNL1       -0.3349
      6 C         142.7428  138.1910  162.7059 C.ar    1  UNL1        0.0945
      7 C         142.3062  139.6261  162.7021 C.ar    1  UNL1        0.1176
      8 N         142.1076  140.3462  161.4014 N.ar    1  UNL1       -0.2390
      9 C         142.3456  139.6313  160.1044 C.ar    1  UNL1        0.1210
     10 H         143.2674  136.5343  161.4113 H       1  UNL1        0.1675
     11 C         142.0682  140.3410  163.9992 C.ar    1  UNL1        0.1213
     12 N         142.7217  140.0262  165.3122 N.ar    1  UNL1       -0.1678
     13 N         142.1923  140.9868  166.3355 N.ar    1  UNL1       -0.2526
     14 C         141.2117  141.8952  165.6549 C.ar    1  UNL1        0.0815
     15 C         140.3786  143.0343  166.1634 C.ar    1  UNL1        0.0484
     16 C         139.4690  143.7741  165.2280 C.ar    1  UNL1        0.1416
     17 F         138.6359  144.9133  165.7366 F       1  UNL1       -0.2041
     18 C         139.3922  143.3750  163.7841 C.ar    1  UNL1        0.0298
     19 C         140.2253  142.2359  163.2756 C.ar    1  UNL1        0.0054
     20 C         141.1350  141.4960  164.2110 C.ar    1  UNL1        0.0383
     21 C         142.5762  141.0311  167.7849 C.3     1  UNL1        0.1079
     22 C         142.2945  139.8546  168.6717 C.3     1  UNL1        0.0415
     23 C         142.6783  139.8990  170.1211 C.3     1  UNL1        0.0706
     24 N         143.3439  141.1199  170.6836 N.3     1  UNL1       -0.2974
     25 C         143.6256  142.2964  169.7967 C.3     1  UNL1        0.0706
     26 C         143.2417  142.2520  168.3474 C.3     1  UNL1        0.0415
     27 H         144.2402  140.8173  171.0649 H       1  UNL1        0.1232
     28 N         141.0576  142.3512  159.1256 N.am    1  UNL1       -0.3039
     29 C         141.8242  141.4434  158.2099 C.2     1  UNL1        0.2488
     30 O         142.1824  141.9015  156.8273 O.2     1  UNL1       -0.2700
     31 H         140.8225  142.0505  160.0331 H       1  UNL1        0.1496
     32 C         139.3508  143.1575  158.1580 C.3     1  UNL1        0.0196
     33 C         140.6494  143.7169  158.6587 C.3     1  UNL1        0.0572
     34 C         141.9481  144.2763  159.1594 C.3     1  UNL1        0.0196
     35 C         140.2412  145.0826  158.1917 C.3     1  UNL1        0.0196
@<TRIPOS>BOND
     1    32    33    1
     2    33    34    1
     3    33    35    1
     4    33    28    1
     5    28    29   am
     6    29    30    2
     7    29     1    1
     8     1     2   ar
     9     2     3   ar
    10     3     4   ar
    11     4     5   ar
    12     5     6   ar
    13     6     7   ar
    14     7    11    1
    15    11    12   ar
    16    12    13   ar
    17    13    21    1
    18    21    22    1
    19    22    23    1
    20    23    24    1
    21    24    25    1
    22    25    26    1
    23    13    14   ar
    24    14    15   ar
    25    15    16   ar
    26    16    17    1
    27    16    18   ar
    28    18    19   ar
    29    19    20   ar
    30     7     8   ar
    31     8     9   ar
    32     9     1   ar
    33     9     4    1
    34    20    11   ar
    35    26    21    1
    36    20    14   ar
    37    28    31    1
    38     5    10    1
    39    24    27    1
@<TRIPOS>MOLECULE
*****
 35 39 0 0 0
SMALL
GASTEIGER

@<TRIPOS>ATOM
      1 C         141.7545  139.1967  158.5932 C.ar    1  UNL1        0.0930
      2 C         140.7960  138.6032  157.6036 C.ar    1  UNL1        0.1067
      3 N         139.5451  138.2247  158.3397 N.ar    1  UNL1       -0.2252
      4 C         139.7303  138.5843  159.7841 C.ar    1  UNL1        0.1586
      5 N         138.8320  138.4424  160.9770 N.ar    1  UNL1       -0.3349
      6 C         139.2992  138.9012  162.3265 C.ar    1  UNL1        0.0945
      7 C         140.6648  139.5019  162.4831 C.ar    1  UNL1        0.1176
      8 N         141.5630  139.6438  161.2903 N.ar    1  UNL1       -0.2390
      9 C         141.0958  139.1850  159.9408 C.ar    1  UNL1        0.1210
     10 H         137.9358  138.0482  160.8741 H       1  UNL1        0.1675
     11 C         141.1320  139.9607  163.8327 C.ar    1  UNL1        0.1213
     12 N         140.6834  139.4117  165.1546 N.ar    1  UNL1       -0.1678
     13 N         141.4039  140.1606  166.2362 N.ar    1  UNL1       -0.2526
     14 C         142.2978  141.1726  165.5827 C.ar    1  UNL1        0.0815
     15 C         143.2432  142.1906  166.1484 C.ar    1  UNL1        0.0484
     16 C         144.0204  143.0849  165.2287 C.ar    1  UNL1        0.1416
     17 F         144.9658  144.1030  165.7944 F       1  UNL1       -0.2041
     18 C         143.8523  142.9614  163.7432 C.ar    1  UNL1        0.0298
     19 C         142.9070  141.9434  163.1776 C.ar    1  UNL1        0.0054
     20 C         142.1298  141.0490  164.0973 C.ar    1  UNL1        0.0383
     21 C         141.2564  139.9370  167.7121 C.3     1  UNL1        0.1079
     22 C         142.4006  139.3765  168.5037 C.3     1  UNL1        0.0415
     23 C         142.2531  139.1528  169.9796 C.3     1  UNL1        0.0706
     24 N         140.9615  139.4897  170.6638 N.3     1  UNL1       -0.2974
     25 C         139.8173  140.0503  169.8721 C.3     1  UNL1        0.0706
     26 C         139.9648  140.2739  168.3963 C.3     1  UNL1        0.0415
     27 H         141.1815  140.1736  171.3879 H       1  UNL1        0.1232
     28 N         143.3574  140.5772  157.0849 N.am    1  UNL1       -0.3039
     29 C         143.1301  139.7114  158.2886 C.2     1  UNL1        0.2488
     30 O         144.2783  139.3605  159.1876 O.2     1  UNL1       -0.2700
     31 H         142.6038  140.8076  156.4948 H       1  UNL1        0.1496
     32 C         144.5008  142.2554  157.6983 C.3     1  UNL1        0.0196
     33 C         144.7330  141.0920  156.7803 C.3     1  UNL1        0.0572
     34 C         144.9651  139.9285  155.8624 C.3     1  UNL1        0.0196
     35 C         146.1085  141.6067  156.4758 C.3     1  UNL1        0.0196
@<TRIPOS>BOND
     1    32    33    1
     2    33    34    1
     3    33    35    1
     4    33    28    1
     5    28    29   am
     6    29    30    2
     7    29     1    1
     8     1     2   ar
     9     2     3   ar
    10     3     4   ar
    11     4     5   ar
    12     5     6   ar
    13     6     7   ar
    14     7    11    1
    15    11    12   ar
    16    12    13   ar
    17    13    21    1
    18    21    22    1
    19    22    23    1
    20    23    24    1
    21    24    25    1
    22    25    26    1
    23    13    14   ar
    24    14    15   ar
    25    15    16   ar
    26    16    17    1
    27    16    18   ar
    28    18    19   ar
    29    19    20   ar
    30     7     8   ar
    31     8     9   ar
    32     9     1   ar
    33     9     4    1
    34    20    11   ar
    35    26    21    1
    36    20    14   ar
    37    28    31    1
    38     5    10    1
    39    24    27    1
@<TRIPOS>MOLECULE
*****
 35 39 0 0 0
SMALL
GASTEIGER

@<TRIPOS>ATOM
      1 C         139.2068  140.0603  168.4215 C.ar    1  UNL1        0.0930
      2 C         138.0774  139.1522  168.8085 C.ar    1  UNL1        0.1067
      3 N         137.4943  138.5764  167.5521 N.ar    1  UNL1       -0.2252
      4 C         138.2634  139.1286  166.3887 C.ar    1  UNL1        0.1586
      5 N         138.1367  138.9148  164.9094 N.ar    1  UNL1       -0.3349
      6 C         139.0684  139.6181  163.9675 C.ar    1  UNL1        0.0945
      7 C         140.1268  140.5351  164.5048 C.ar    1  UNL1        0.1176
      8 N         140.2535  140.7489  165.9841 N.ar    1  UNL1       -0.2390
      9 C         139.3218  140.0457  166.9260 C.ar    1  UNL1        0.1210
     10 H         137.4420  138.3129  164.5568 H       1  UNL1        0.1675
     11 C         141.0586  141.2385  163.5628 C.ar    1  UNL1        0.1213
     12 N         140.6558  142.0654  162.3779 N.ar    1  UNL1       -0.1678
     13 N         141.9049  142.5763  161.7231 N.ar    1  UNL1       -0.2526
     14 C         143.0796  142.0651  162.5034 C.ar    1  UNL1        0.0815
     15 C         144.5580  142.2457  162.3254 C.ar    1  UNL1        0.0484
     16 C         145.5133  141.5995  163.2844 C.ar    1  UNL1        0.1416
     17 F         146.9918  141.7801  163.1064 F       1  UNL1       -0.2041
     18 C         144.9903  140.7726  164.4214 C.ar    1  UNL1        0.0298
     19 C         143.5119  140.5920  164.5994 C.ar    1  UNL1        0.0054
     20 C         142.5565  141.2383  163.6403 C.ar    1  UNL1        0.0383
     21 C         141.9682  143.4457  160.5024 C.3     1  UNL1        0.1079
     22 C         141.1837  144.7232  160.4500 C.3     1  UNL1        0.0415
     23 C         141.2470  145.5926  159.2293 C.3     1  UNL1        0.0706
     24 N         142.0947  145.1846  158.0611 N.3     1  UNL1       -0.2974
     25 C         142.8791  143.9071  158.1135 C.3     1  UNL1        0.0706
     26 C         142.8159  143.0377  159.3342 C.3     1  UNL1        0.0415
     27 H         142.7665  145.9366  157.9079 H       1  UNL1        0.1232
     28 N         141.1159  141.7756  168.8257 N.am    1  UNL1       -0.3039
     29 C         140.0699  140.8451  169.3645 C.2     1  UNL1        0.2488
     30 O         139.8870  140.6996  170.8461 O.2     1  UNL1       -0.2700
     31 H         141.2360  141.8712  167.8533 H       1  UNL1        0.1496
     32 C         140.9339  143.6348  169.8308 C.3     1  UNL1        0.0196
     33 C         141.9789  142.5605  169.7687 C.3     1  UNL1        0.0572
     34 C         143.0238  141.4862  169.7066 C.3     1  UNL1        0.0196
     35 C         142.8418  143.3454  170.7116 C.3     1  UNL1        0.0196
@<TRIPOS>BOND
     1    32    33    1
     2    33    34    1
     3    33    35    1
     4    33    28    1
     5    28    29   am
     6    29    30    2
     7    29     1    1
     8     1     2   ar
     9     2     3   ar
    10     3     4   ar
    11     4     5   ar
    12     5     6   ar
    13     6     7   ar
    14     7    11    1
    15    11    12   ar
    16    12    13   ar
    17    13    21    1
    18    21    22    1
    19    22    23    1
    20    23    24    1
    21    24    25    1
    22    25    26    1
    23    13    14   ar
    24    14    15   ar
    25    15    16   ar
    26    16    17    1
    27    16    18   ar
    28    18    19   ar
    29    19    20   ar
    30     7     8   ar
    31     8     9   ar
    32     9     1   ar
    33     9     4    1
    34    20    11   ar
    35    26    21    1
    36    20    14   ar
    37    28    31    1
    38     5    10    1
    39    24    27    1
@<TRIPOS>MOLECULE
*****
 35 39 0 0 0
SMALL
GASTEIGER

@<TRIPOS>ATOM
      1 C         141.1333  144.5772  160.0732 C.ar    1  UNL1        0.0930
      2 C         140.5412  145.8447  159.5320 C.ar    1  UNL1        0.1067
      3 N         139.6935  146.4564  160.6077 N.ar    1  UNL1       -0.2252
      4 C         139.7616  145.5670  161.8137 C.ar    1  UNL1        0.1586
      5 N         139.1283  145.6647  163.1699 N.ar    1  UNL1       -0.3349
      6 C         139.3849  144.6008  164.1957 C.ar    1  UNL1        0.0945
      7 C         140.2747  143.4394  163.8654 C.ar    1  UNL1        0.1176
      8 N         140.9080  143.3417  162.5092 N.ar    1  UNL1       -0.2390
      9 C         140.6514  144.4055  161.4833 C.ar    1  UNL1        0.1210
     10 H         138.5442  146.4270  163.3867 H       1  UNL1        0.1675
     11 C         140.5313  142.3755  164.8913 C.ar    1  UNL1        0.1213
     12 N         140.6577  142.5894  166.3706 N.ar    1  UNL1       -0.1678
     13 N         140.9110  141.2572  167.0117 N.ar    1  UNL1       -0.2526
     14 C         140.9411  140.2199  165.9285 C.ar    1  UNL1        0.0815
     15 C         141.1519  138.7353  165.9662 C.ar    1  UNL1        0.0484
     16 C         141.1281  137.9419  164.6935 C.ar    1  UNL1        0.1416
     17 F         141.3389  136.4571  164.7312 F       1  UNL1       -0.2041
     18 C         140.8934  138.6330  163.3830 C.ar    1  UNL1        0.0298
     19 C         140.6826  140.1176  163.3454 C.ar    1  UNL1        0.0054
     20 C         140.7064  140.9111  164.6181 C.ar    1  UNL1        0.0383
     21 C         141.1008  141.0063  168.4783 C.3     1  UNL1        0.1079
     22 C         139.9969  140.3855  169.2820 C.3     1  UNL1        0.0415
     23 C         140.1867  140.1346  170.7487 C.3     1  UNL1        0.0706
     24 N         141.4805  140.5045  171.4115 N.3     1  UNL1       -0.2974
     25 C         142.5844  141.1253  170.6077 C.3     1  UNL1        0.0706
     26 C         142.3946  141.3762  169.1411 C.3     1  UNL1        0.0415
     27 H         141.8580  139.6488  171.8185 H       1  UNL1        0.1232
     28 N         141.9467  142.1646  159.5553 N.am    1  UNL1       -0.3039
     29 C         142.0468  143.6449  159.3340 C.2     1  UNL1        0.2488
     30 O         143.0603  144.1927  158.3736 O.2     1  UNL1       -0.2700
     31 H         141.2815  141.8050  160.1857 H       1  UNL1        0.1496
     32 C         141.8715  141.1560  157.6907 C.3     1  UNL1        0.0196
     33 C         142.8603  141.2323  158.8162 C.3     1  UNL1        0.0572
     34 C         143.8489  141.3087  159.9417 C.3     1  UNL1        0.0196
     35 C         143.7737  140.3001  158.0770 C.3     1  UNL1        0.0196
@<TRIPOS>BOND
     1    32    33    1
     2    33    34    1
     3    33    35    1
     4    33    28    1
     5    28    29   am
     6    29    30    2
     7    29     1    1
     8     1     2   ar
     9     2     3   ar
    10     3     4   ar
    11     4     5   ar
    12     5     6   ar
    13     6     7   ar
    14     7    11    1
    15    11    12   ar
    16    12    13   ar
    17    13    21    1
    18    21    22    1
    19    22    23    1
    20    23    24    1
    21    24    25    1
    22    25    26    1
    23    13    14   ar
    24    14    15   ar
    25    15    16   ar
    26    16    17    1
    27    16    18   ar
    28    18    19   ar
    29    19    20   ar
    30     7     8   ar
    31     8     9   ar
    32     9     1   ar
    33     9     4    1
    34    20    11   ar
    35    26    21    1
    36    20    14   ar
    37    28    31    1
    38     5    10    1
    39    24    27    1
