@<TRIPOS>MOLECULE
*****
 29 33 0 0 0
SMALL
GASTEIGER

@<TRIPOS>ATOM
      1 C         141.2020  142.4408  166.8381 C.ar    1  UNL1        0.0200
      2 C         142.5883  141.9153  166.6099 C.ar    1  UNL1        0.1006
      3 N         143.2231  142.0372  165.2563 N.ar    1  UNL1       -0.2246
      4 C         142.4717  142.6845  164.1310 C.ar    1  UNL1        0.1702
      5 N         142.8361  142.9445  162.6993 N.ar    1  UNL1       -0.2052
      6 C         141.6751  143.6306  162.0428 C.ar    1  UNL1        0.1647
      7 S         140.5931  143.7947  163.0687 S.2     1  UNL1       -0.0499
      8 C         141.0854  143.2100  164.3593 C.ar    1  UNL1        0.0679
      9 C         140.4506  143.0882  165.7128 C.ar    1  UNL1        0.0112
     10 C         139.3408  140.8895  169.9813 C.ar    1  UNL1        0.2250
     11 C         139.9757  141.0113  168.6277 C.ar    1  UNL1        0.0578
     12 C         140.5671  142.3190  168.1917 C.ar    1  UNL1        0.0077
     13 C         140.5237  143.5049  169.1092 C.ar    1  UNL1        0.0209
     14 C         139.8888  143.3831  170.4627 C.ar    1  UNL1        0.1021
     15 N         139.2974  142.0754  170.8988 N.ar    1  UNL1       -0.2101
     16 C         137.2713  139.4659  170.6449 C.3     1  UNL1        0.2542
     17 O         138.7494  139.5818  170.4174 O.3     1  UNL1       -0.4561
     18 N         141.6077  144.0747  160.6115 N.pl3   1  UNL1       -0.2880
     19 C         142.5418  143.4830  159.5979 C.3     1  UNL1        0.0940
     20 C         142.4745  143.9271  158.1668 C.3     1  UNL1        0.0375
     21 C         141.4732  144.9628  157.7492 C.3     1  UNL1        0.0609
     22 C         140.5391  145.5546  158.7628 C.3     1  UNL1        0.0375
     23 C         140.6064  145.1105  160.1940 C.3     1  UNL1        0.0940
     24 N         141.4058  145.4069  156.3180 N.3     1  UNL1       -0.2738
     25 C         142.4071  144.8942  155.3258 C.3     1  UNL1        0.0720
     26 C         142.3398  145.3383  153.8946 C.3     1  UNL1        0.0174
     27 C         141.2713  146.2951  153.4557 C.3     1  UNL1        0.0029
     28 C         140.2700  146.8078  154.4480 C.3     1  UNL1        0.0174
     29 C         140.3373  146.3637  155.8791 C.3     1  UNL1        0.0720
@<TRIPOS>BOND
     1    16    17    1
     2    17    10    1
     3    10    11   ar
     4    11    12   ar
     5    12     1    1
     6     1     2   ar
     7     2     3   ar
     8     3     4   ar
     9     4     5   ar
    10     5     6   ar
    11     6    18    1
    12    18    19    1
    13    19    20    1
    14    20    21    1
    15    21    24    1
    16    24    25    1
    17    25    26    1
    18    26    27    1
    19    27    28    1
    20    28    29    1
    21    21    22    1
    22    22    23    1
    23     6     7   ar
    24     7     8   ar
    25     8     9   ar
    26    12    13   ar
    27    13    14   ar
    28    14    15   ar
    29    15    10   ar
    30     9     1   ar
    31     8     4   ar
    32    23    18    1
    33    29    24    1
@<TRIPOS>MOLECULE
*****
 29 33 0 0 0
SMALL
GASTEIGER

@<TRIPOS>ATOM
      1 C         139.9600  145.3845  157.3653 C.ar    1  UNL1        0.0200
      2 C         139.5520  143.9801  157.0319 C.ar    1  UNL1        0.1006
      3 N         139.6569  142.9022  158.0698 N.ar    1  UNL1       -0.2246
      4 C         140.1697  143.2288  159.4411 C.ar    1  UNL1        0.1702
      5 N         140.3827  142.3822  160.6609 N.ar    1  UNL1       -0.2052
      6 C         140.9224  143.2634  161.7482 C.ar    1  UNL1        0.1647
      7 S         141.0428  144.6546  161.2003 S.2     1  UNL1       -0.0499
      8 C         140.5776  144.6332  159.7745 C.ar    1  UNL1        0.0679
      9 C         140.4728  145.7110  158.7366 C.ar    1  UNL1        0.0112
     10 C         138.9058  148.7524  155.5497 C.ar    1  UNL1        0.2250
     11 C         139.0107  147.6745  156.5876 C.ar    1  UNL1        0.0578
     12 C         139.8551  146.4624  156.3274 C.ar    1  UNL1        0.0077
     13 C         140.5948  146.3282  155.0294 C.ar    1  UNL1        0.0209
     14 C         140.4900  147.4060  153.9915 C.ar    1  UNL1        0.1021
     15 N         139.6455  148.6182  154.2516 N.ar    1  UNL1       -0.2101
     16 C         138.5853  151.3295  155.4749 C.3     1  UNL1        0.2542
     17 O         138.0614  149.9644  155.8098 O.3     1  UNL1       -0.4561
     18 N         141.2790  142.8297  163.1392 N.pl3   1  UNL1       -0.2880
     19 C         142.5131  142.0107  163.3762 C.3     1  UNL1        0.0940
     20 C         142.8697  141.5769  164.7671 C.3     1  UNL1        0.0375
     21 C         141.9922  141.9622  165.9210 C.3     1  UNL1        0.0609
     22 C         140.7581  142.7812  165.6840 C.3     1  UNL1        0.0375
     23 C         140.4015  143.2149  164.2931 C.3     1  UNL1        0.0940
     24 N         142.3488  141.5284  167.3120 N.3     1  UNL1       -0.2738
     25 C         143.1575  142.4318  168.1951 C.3     1  UNL1        0.0720
     26 C         143.5142  141.9981  169.5860 C.3     1  UNL1        0.0174
     27 C         143.0621  140.6611  170.0938 C.3     1  UNL1        0.0029
     28 C         142.2533  139.7577  169.2107 C.3     1  UNL1        0.0174
     29 C         141.8967  140.1914  167.8197 C.3     1  UNL1        0.0720
@<TRIPOS>BOND
     1    16    17    1
     2    17    10    1
     3    10    11   ar
     4    11    12   ar
     5    12     1    1
     6     1     2   ar
     7     2     3   ar
     8     3     4   ar
     9     4     5   ar
    10     5     6   ar
    11     6    18    1
    12    18    19    1
    13    19    20    1
    14    20    21    1
    15    21    24    1
    16    24    25    1
    17    25    26    1
    18    26    27    1
    19    27    28    1
    20    28    29    1
    21    21    22    1
    22    22    23    1
    23     6     7   ar
    24     7     8   ar
    25     8     9   ar
    26    12    13   ar
    27    13    14   ar
    28    14    15   ar
    29    15    10   ar
    30     9     1   ar
    31     8     4   ar
    32    23    18    1
    33    29    24    1
@<TRIPOS>MOLECULE
*****
 29 33 0 0 0
SMALL
GASTEIGER

@<TRIPOS>ATOM
      1 C         139.9020  141.2129  166.3388 C.ar    1  UNL1        0.0200
      2 C         139.5652  139.9389  165.6222 C.ar    1  UNL1        0.1006
      3 N         139.4546  139.9266  164.1263 N.ar    1  UNL1       -0.2246
      4 C         139.6807  141.1882  163.3471 C.ar    1  UNL1        0.1702
      5 N         139.6401  141.4804  161.8763 N.ar    1  UNL1       -0.2052
      6 C         139.9517  142.9350  161.6840 C.ar    1  UNL1        0.1647
      7 S         140.1850  143.5417  163.0359 S.2     1  UNL1       -0.0499
      8 C         140.0175  142.4621  164.0637 C.ar    1  UNL1        0.0679
      9 C         140.1281  142.4745  165.5595 C.ar    1  UNL1        0.0112
     10 C         140.9167  142.3110  170.0151 C.ar    1  UNL1        0.2250
     11 C         140.8060  142.2986  168.5192 C.ar    1  UNL1        0.0578
     12 C         140.0127  141.2253  167.8347 C.ar    1  UNL1        0.0077
     13 C         139.3299  140.1644  168.6460 C.ar    1  UNL1        0.0209
     14 C         139.4405  140.1768  170.1419 C.ar    1  UNL1        0.1021
     15 N         140.2339  141.2501  170.8264 N.ar    1  UNL1       -0.2101
     16 C         143.2081  143.3118  170.7205 C.3     1  UNL1        0.2542
     17 O         141.7100  143.3843  170.6995 O.3     1  UNL1       -0.4561
     18 N         140.0184  143.6563  160.3705 N.pl3   1  UNL1       -0.2880
     19 C         140.5624  145.0528  160.3084 C.3     1  UNL1        0.0940
     20 C         140.6291  145.7740  158.9950 C.3     1  UNL1        0.0375
     21 C         140.1518  145.0988  157.7435 C.3     1  UNL1        0.0609
     22 C         139.6078  143.7024  157.8055 C.3     1  UNL1        0.0375
     23 C         139.5411  142.9811  159.1190 C.3     1  UNL1        0.0940
     24 N         140.2185  145.8201  156.4300 N.3     1  UNL1       -0.2738
     25 C         141.1257  145.3202  155.3451 C.3     1  UNL1        0.0720
     26 C         141.1925  146.0414  154.0315 C.3     1  UNL1        0.0174
     27 C         140.3519  147.2626  153.8029 C.3     1  UNL1        0.0029
     28 C         139.4447  147.7625  154.8878 C.3     1  UNL1        0.0174
     29 C         139.3780  147.0413  156.2013 C.3     1  UNL1        0.0720
@<TRIPOS>BOND
     1    16    17    1
     2    17    10    1
     3    10    11   ar
     4    11    12   ar
     5    12     1    1
     6     1     2   ar
     7     2     3   ar
     8     3     4   ar
     9     4     5   ar
    10     5     6   ar
    11     6    18    1
    12    18    19    1
    13    19    20    1
    14    20    21    1
    15    21    24    1
    16    24    25    1
    17    25    26    1
    18    26    27    1
    19    27    28    1
    20    28    29    1
    21    21    22    1
    22    22    23    1
    23     6     7   ar
    24     7     8   ar
    25     8     9   ar
    26    12    13   ar
    27    13    14   ar
    28    14    15   ar
    29    15    10   ar
    30     9     1   ar
    31     8     4   ar
    32    23    18    1
    33    29    24    1
@<TRIPOS>MOLECULE
*****
 29 33 0 0 0
SMALL
GASTEIGER

@<TRIPOS>ATOM
      1 C         140.5484  141.8181  166.4549 C.ar    1  UNL1        0.0200
      2 C         140.7995  143.0997  165.7172 C.ar    1  UNL1        0.1006
      3 N         141.0857  143.0740  164.2450 N.ar    1  UNL1       -0.2246
      4 C         141.1207  141.7666  163.5105 C.ar    1  UNL1        0.1702
      5 N         141.3747  141.4307  162.0708 N.ar    1  UNL1       -0.2052
      6 C         141.2805  139.9414  161.9187 C.ar    1  UNL1        0.1647
      7 S         140.9683  139.3569  163.2644 S.2     1  UNL1       -0.0499
      8 C         140.8695  140.4849  164.2482 C.ar    1  UNL1        0.0679
      9 C         140.5834  140.5107  165.7204 C.ar    1  UNL1        0.0112
     10 C         139.3271  140.6884  170.0581 C.ar    1  UNL1        0.2250
     11 C         139.6132  140.6627  168.5858 C.ar    1  UNL1        0.0578
     12 C         140.2622  141.8438  167.9272 C.ar    1  UNL1        0.0077
     13 C         140.6251  143.0506  168.7407 C.ar    1  UNL1        0.0209
     14 C         140.3389  143.0763  170.2129 C.ar    1  UNL1        0.1021
     15 N         139.6899  141.8952  170.8716 N.ar    1  UNL1       -0.2101
     16 C         137.1838  139.3759  170.7167 C.3     1  UNL1        0.2542
     17 O         138.6781  139.5073  170.7167 O.3     1  UNL1       -0.4561
     18 N         141.4659  139.1717  160.6446 N.pl3   1  UNL1       -0.2880
     19 C         140.3752  139.1514  159.6151 C.3     1  UNL1        0.0940
     20 C         140.5605  138.3818  158.3411 C.3     1  UNL1        0.0375
     21 C         141.8366  137.6323  158.0966 C.3     1  UNL1        0.0609
     22 C         142.9273  137.6525  159.1261 C.3     1  UNL1        0.0375
     23 C         142.7420  138.4222  160.4001 C.3     1  UNL1        0.0940
     24 N         142.0220  136.8626  156.8225 N.3     1  UNL1       -0.2738
     25 C         143.3501  136.2396  156.5092 C.3     1  UNL1        0.0720
     26 C         143.5355  135.4699  155.2352 C.3     1  UNL1        0.0174
     27 C         142.3930  135.3232  154.2745 C.3     1  UNL1        0.0029
     28 C         141.0649  135.9462  154.5878 C.3     1  UNL1        0.0174
     29 C         140.8795  136.7159  155.8618 C.3     1  UNL1        0.0720
@<TRIPOS>BOND
     1    16    17    1
     2    17    10    1
     3    10    11   ar
     4    11    12   ar
     5    12     1    1
     6     1     2   ar
     7     2     3   ar
     8     3     4   ar
     9     4     5   ar
    10     5     6   ar
    11     6    18    1
    12    18    19    1
    13    19    20    1
    14    20    21    1
    15    21    24    1
    16    24    25    1
    17    25    26    1
    18    26    27    1
    19    27    28    1
    20    28    29    1
    21    21    22    1
    22    22    23    1
    23     6     7   ar
    24     7     8   ar
    25     8     9   ar
    26    12    13   ar
    27    13    14   ar
    28    14    15   ar
    29    15    10   ar
    30     9     1   ar
    31     8     4   ar
    32    23    18    1
    33    29    24    1
@<TRIPOS>MOLECULE
*****
 29 33 0 0 0
SMALL
GASTEIGER

@<TRIPOS>ATOM
      1 C         142.1126  141.8204  166.5054 C.ar    1  UNL1        0.0200
      2 C         143.4348  142.5277  166.5405 C.ar    1  UNL1        0.1006
      3 N         143.9077  143.2936  165.3407 N.ar    1  UNL1       -0.2246
      4 C         143.0584  143.3523  164.1058 C.ar    1  UNL1        0.1702
      5 N         143.2603  144.0237  162.7796 N.ar    1  UNL1       -0.2052
      6 C         142.0628  143.7313  161.9250 C.ar    1  UNL1        0.1647
      7 S         141.1208  142.8792  162.7228 S.2     1  UNL1       -0.0499
      8 C         141.7361  142.6450  164.0706 C.ar    1  UNL1        0.0679
      9 C         141.2632  141.8790  165.2705 C.ar    1  UNL1        0.0112
     10 C         142.1588  139.5962  169.7920 C.ar    1  UNL1        0.2250
     11 C         142.6317  140.3622  168.5921 C.ar    1  UNL1        0.0578
     12 C         141.6396  141.0544  167.7053 C.ar    1  UNL1        0.0077
     13 C         140.1745  140.9806  168.0182 C.ar    1  UNL1        0.0209
     14 C         139.7015  140.2146  169.2180 C.ar    1  UNL1        0.1021
     15 N         140.6936  139.5224  170.1049 N.ar    1  UNL1       -0.2101
     16 C         143.4201  137.4389  170.5027 C.3     1  UNL1        0.2542
     17 O         143.1509  138.9040  170.6788 O.3     1  UNL1       -0.4561
     18 N         141.8454  144.2074  160.5192 N.pl3   1  UNL1       -0.2880
     19 C         142.6989  143.6748  159.4066 C.3     1  UNL1        0.0940
     20 C         142.4815  144.1508  158.0008 C.3     1  UNL1        0.0375
     21 C         141.4108  145.1595  157.7078 C.3     1  UNL1        0.0609
     22 C         140.5574  145.6922  158.8204 C.3     1  UNL1        0.0375
     23 C         140.7747  145.2161  160.2261 C.3     1  UNL1        0.0940
     24 N         141.1934  145.6356  156.3020 N.3     1  UNL1       -0.2738
     25 C         140.0926  146.6093  156.0017 C.3     1  UNL1        0.0720
     26 C         139.8752  147.0854  154.5960 C.3     1  UNL1        0.0174
     27 C         140.7586  146.5879  153.4906 C.3     1  UNL1        0.0029
     28 C         141.8594  145.6142  153.7909 C.3     1  UNL1        0.0174
     29 C         142.0768  145.1381  155.1966 C.3     1  UNL1        0.0720
@<TRIPOS>BOND
     1    16    17    1
     2    17    10    1
     3    10    11   ar
     4    11    12   ar
     5    12     1    1
     6     1     2   ar
     7     2     3   ar
     8     3     4   ar
     9     4     5   ar
    10     5     6   ar
    11     6    18    1
    12    18    19    1
    13    19    20    1
    14    20    21    1
    15    21    24    1
    16    24    25    1
    17    25    26    1
    18    26    27    1
    19    27    28    1
    20    28    29    1
    21    21    22    1
    22    22    23    1
    23     6     7   ar
    24     7     8   ar
    25     8     9   ar
    26    12    13   ar
    27    13    14   ar
    28    14    15   ar
    29    15    10   ar
    30     9     1   ar
    31     8     4   ar
    32    23    18    1
    33    29    24    1
@<TRIPOS>MOLECULE
*****
 29 33 0 0 0
SMALL
GASTEIGER

@<TRIPOS>ATOM
      1 C         140.4341  141.2940  167.0693 C.ar    1  UNL1        0.0200
      2 C         139.4778  140.2666  166.5403 C.ar    1  UNL1        0.1006
      3 N         139.0277  140.3267  165.1107 N.ar    1  UNL1       -0.2246
      4 C         139.5340  141.4142  164.2101 C.ar    1  UNL1        0.1702
      5 N         139.2692  141.7268  162.7670 N.ar    1  UNL1       -0.2052
      6 C         140.0619  142.9474  162.4043 C.ar    1  UNL1        0.1647
      7 S         140.8165  143.3892  163.6231 S.2     1  UNL1       -0.0499
      8 C         140.4902  142.4416  164.7391 C.ar    1  UNL1        0.0679
      9 C         140.9403  142.3815  166.1687 C.ar    1  UNL1        0.0112
     10 C         142.3638  140.1673  170.3492 C.ar    1  UNL1        0.2250
     11 C         141.9137  140.2274  168.9195 C.ar    1  UNL1        0.0578
     12 C         140.8842  141.2340  168.4990 C.ar    1  UNL1        0.0077
     13 C         140.3047  142.1805  169.5080 C.ar    1  UNL1        0.0209
     14 C         140.7548  142.1205  170.9376 C.ar    1  UNL1        0.1021
     15 N         141.7843  141.1139  171.3582 N.ar    1  UNL1       -0.2101
     16 C         143.2441  137.7231  170.3687 C.3     1  UNL1        0.2542
     17 O         143.3933  139.1608  170.7697 O.3     1  UNL1       -0.4561
     18 N         140.0943  143.6100  161.0589 N.pl3   1  UNL1       -0.2880
     19 C         140.5000  145.0493  160.9413 C.3     1  UNL1        0.0940
     20 C         140.5324  145.7119  159.5960 C.3     1  UNL1        0.0375
     21 C         140.1592  144.9352  158.3683 C.3     1  UNL1        0.0609
     22 C         139.7536  143.4959  158.4859 C.3     1  UNL1        0.0375
     23 C         139.7211  142.8333  159.8312 C.3     1  UNL1        0.0940
     24 N         140.1917  145.5978  157.0229 N.3     1  UNL1       -0.2738
     25 C         141.0214  145.0129  155.9187 C.3     1  UNL1        0.0720
     26 C         141.0538  145.6754  154.5733 C.3     1  UNL1        0.0174
     27 C         140.2566  146.9229  154.3323 C.3     1  UNL1        0.0029
     28 C         139.4269  147.5078  155.4365 C.3     1  UNL1        0.0174
     29 C         139.3944  146.8453  156.7819 C.3     1  UNL1        0.0720
@<TRIPOS>BOND
     1    16    17    1
     2    17    10    1
     3    10    11   ar
     4    11    12   ar
     5    12     1    1
     6     1     2   ar
     7     2     3   ar
     8     3     4   ar
     9     4     5   ar
    10     5     6   ar
    11     6    18    1
    12    18    19    1
    13    19    20    1
    14    20    21    1
    15    21    24    1
    16    24    25    1
    17    25    26    1
    18    26    27    1
    19    27    28    1
    20    28    29    1
    21    21    22    1
    22    22    23    1
    23     6     7   ar
    24     7     8   ar
    25     8     9   ar
    26    12    13   ar
    27    13    14   ar
    28    14    15   ar
    29    15    10   ar
    30     9     1   ar
    31     8     4   ar
    32    23    18    1
    33    29    24    1
@<TRIPOS>MOLECULE
*****
 29 33 0 0 0
SMALL
GASTEIGER

@<TRIPOS>ATOM
      1 C         140.0858  138.9570  163.9179 C.ar    1  UNL1        0.0200
      2 C         139.6626  137.8306  163.0223 C.ar    1  UNL1        0.1006
      3 N         140.2183  137.7279  161.6329 N.ar    1  UNL1       -0.2246
      4 C         141.1972  138.7516  161.1390 C.ar    1  UNL1        0.1702
      5 N         141.9090  138.9092  159.8281 N.ar    1  UNL1       -0.2052
      6 C         142.7721  140.1330  159.9135 C.ar    1  UNL1        0.1647
      7 S         142.5937  140.7317  161.2772 S.2     1  UNL1       -0.0499
      8 C         141.6203  139.8780  162.0346 C.ar    1  UNL1        0.0679
      9 C         141.0646  139.9807  163.4240 C.ar    1  UNL1        0.0112
     10 C         139.6954  139.9699  167.7353 C.ar    1  UNL1        0.2250
     11 C         140.2511  139.8671  166.3457 C.ar    1  UNL1        0.0578
     12 C         139.5301  139.0597  165.3074 C.ar    1  UNL1        0.0077
     13 C         138.2533  138.3550  165.6586 C.ar    1  UNL1        0.0209
     14 C         137.6976  138.4578  167.0480 C.ar    1  UNL1        0.1021
     15 N         138.4187  139.2652  168.0864 N.ar    1  UNL1       -0.2101
     16 C         140.7017  140.1831  170.1210 C.3     1  UNL1        0.2542
     17 O         140.4165  140.7772  168.7736 O.3     1  UNL1       -0.4561
     18 N         143.6582  140.6647  158.8262 N.pl3   1  UNL1       -0.2880
     19 C         144.3532  141.9823  159.0022 C.3     1  UNL1        0.0940
     20 C         145.2392  142.5140  157.9149 C.3     1  UNL1        0.0375
     21 C         145.4301  141.7283  156.6516 C.3     1  UNL1        0.0609
     22 C         144.7351  140.4107  156.4755 C.3     1  UNL1        0.0375
     23 C         143.8491  139.8790  157.5628 C.3     1  UNL1        0.0940
     24 N         146.3162  142.2600  155.5643 N.3     1  UNL1       -0.2738
     25 C         147.7582  141.8514  155.5048 C.3     1  UNL1        0.0720
     26 C         148.6442  142.3831  154.4176 C.3     1  UNL1        0.0174
     27 C         148.0882  143.3234  153.3897 C.3     1  UNL1        0.0029
     28 C         146.6461  143.7321  153.4491 C.3     1  UNL1        0.0174
     29 C         145.7601  143.2004  154.5364 C.3     1  UNL1        0.0720
@<TRIPOS>BOND
     1    16    17    1
     2    17    10    1
     3    10    11   ar
     4    11    12   ar
     5    12     1    1
     6     1     2   ar
     7     2     3   ar
     8     3     4   ar
     9     4     5   ar
    10     5     6   ar
    11     6    18    1
    12    18    19    1
    13    19    20    1
    14    20    21    1
    15    21    24    1
    16    24    25    1
    17    25    26    1
    18    26    27    1
    19    27    28    1
    20    28    29    1
    21    21    22    1
    22    22    23    1
    23     6     7   ar
    24     7     8   ar
    25     8     9   ar
    26    12    13   ar
    27    13    14   ar
    28    14    15   ar
    29    15    10   ar
    30     9     1   ar
    31     8     4   ar
    32    23    18    1
    33    29    24    1
@<TRIPOS>MOLECULE
*****
 29 33 0 0 0
SMALL
GASTEIGER

@<TRIPOS>ATOM
      1 C         140.3529  140.5308  166.2384 C.ar    1  UNL1        0.0200
      2 C         139.4838  139.5255  165.5427 C.ar    1  UNL1        0.1006
      3 N         139.7071  139.2175  164.0918 N.ar    1  UNL1       -0.2246
      4 C         140.7995  139.9148  163.3365 C.ar    1  UNL1        0.1702
      5 N         141.2534  139.8178  161.9101 N.ar    1  UNL1       -0.2052
      6 C         142.4030  140.7632  161.7242 C.ar    1  UNL1        0.1647
      7 S         142.6596  141.4444  163.0358 S.2     1  UNL1       -0.0499
      8 C         141.6686  140.9201  164.0322 C.ar    1  UNL1        0.0679
      9 C         141.4453  141.2281  165.4831 C.ar    1  UNL1        0.0112
     10 C         140.6730  142.2556  169.7983 C.ar    1  UNL1        0.2250
     11 C         140.8963  141.9475  168.3473 C.ar    1  UNL1        0.0578
     12 C         140.1296  140.8388  167.6894 C.ar    1  UNL1        0.0077
     13 C         139.1397  140.0381  168.4824 C.ar    1  UNL1        0.0209
     14 C         138.9164  140.3461  169.9333 C.ar    1  UNL1        0.1021
     15 N         139.6830  141.4549  170.5913 N.ar    1  UNL1       -0.2101
     16 C         142.9275  143.2570  170.6133 C.3     1  UNL1        0.2542
     17 O         141.4396  143.3643  170.4563 O.3     1  UNL1       -0.4561
     18 N         143.1627  140.9880  160.4504 N.pl3   1  UNL1       -0.2880
     19 C         143.9468  142.2522  160.2580 C.3     1  UNL1        0.0940
     20 C         144.7064  142.4770  158.9843 C.3     1  UNL1        0.0375
     21 C         144.6820  141.4376  157.9031 C.3     1  UNL1        0.0609
     22 C         143.8979  140.1734  158.0955 C.3     1  UNL1        0.0375
     23 C         143.1382  139.9486  159.3692 C.3     1  UNL1        0.0940
     24 N         145.4417  141.6624  156.6293 N.3     1  UNL1       -0.2738
     25 C         146.7562  142.3844  156.6575 C.3     1  UNL1        0.0720
     26 C         147.5158  142.6091  155.3838 C.3     1  UNL1        0.0174
     27 C         146.9610  142.1119  154.0819 C.3     1  UNL1        0.0029
     28 C         145.6465  141.3900  154.0537 C.3     1  UNL1        0.0174
     29 C         144.8868  141.1652  155.3274 C.3     1  UNL1        0.0720
@<TRIPOS>BOND
     1    16    17    1
     2    17    10    1
     3    10    11   ar
     4    11    12   ar
     5    12     1    1
     6     1     2   ar
     7     2     3   ar
     8     3     4   ar
     9     4     5   ar
    10     5     6   ar
    11     6    18    1
    12    18    19    1
    13    19    20    1
    14    20    21    1
    15    21    24    1
    16    24    25    1
    17    25    26    1
    18    26    27    1
    19    27    28    1
    20    28    29    1
    21    21    22    1
    22    22    23    1
    23     6     7   ar
    24     7     8   ar
    25     8     9   ar
    26    12    13   ar
    27    13    14   ar
    28    14    15   ar
    29    15    10   ar
    30     9     1   ar
    31     8     4   ar
    32    23    18    1
    33    29    24    1
@<TRIPOS>MOLECULE
*****
 29 33 0 0 0
SMALL
GASTEIGER

@<TRIPOS>ATOM
      1 C         139.7628  140.3619  167.4104 C.ar    1  UNL1        0.0200
      2 C         138.6399  139.3730  167.3053 C.ar    1  UNL1        0.1006
      3 N         137.9486  139.1601  165.9912 N.ar    1  UNL1       -0.2246
      4 C         138.3801  139.9361  164.7823 C.ar    1  UNL1        0.1702
      5 N         137.8905  139.9396  163.3644 N.ar    1  UNL1       -0.2052
      6 C         138.7108  140.9308  162.5933 C.ar    1  UNL1        0.1647
      7 S         139.7074  141.5397  163.5345 S.2     1  UNL1       -0.0499
      8 C         139.5030  140.9250  164.8874 C.ar    1  UNL1        0.0679
      9 C         140.1944  141.1379  166.2014 C.ar    1  UNL1        0.0112
     10 C         142.2982  139.9115  170.4302 C.ar    1  UNL1        0.2250
     11 C         141.6068  139.6985  169.1161 C.ar    1  UNL1        0.0578
     12 C         140.4542  140.5748  168.7244 C.ar    1  UNL1        0.0077
     13 C         139.9928  141.6640  169.6468 C.ar    1  UNL1        0.0209
     14 C         140.6841  141.8770  170.9608 C.ar    1  UNL1        0.1021
     15 N         141.8369  141.0007  171.3525 N.ar    1  UNL1       -0.2101
     16 C         143.4149  137.5672  170.5158 C.3     1  UNL1        0.2542
     17 O         143.4509  139.0352  170.8219 O.3     1  UNL1       -0.4561
     18 N         138.5608  141.2559  161.1366 N.pl3   1  UNL1       -0.2880
     19 C         139.0313  142.5798  160.6114 C.3     1  UNL1        0.0940
     20 C         138.8814  142.9050  159.1547 C.3     1  UNL1        0.0375
     21 C         138.2610  141.9062  158.2234 C.3     1  UNL1        0.0609
     22 C         137.7905  140.5823  158.7486 C.3     1  UNL1        0.0375
     23 C         137.9404  140.2571  160.2052 C.3     1  UNL1        0.0940
     24 N         138.1110  142.2313  156.7667 N.3     1  UNL1       -0.2738
     25 C         139.2904  142.7273  155.9837 C.3     1  UNL1        0.0720
     26 C         139.1405  143.0524  154.5270 C.3     1  UNL1        0.0174
     27 C         137.8113  142.8816  153.8534 C.3     1  UNL1        0.0029
     28 C         136.6319  142.3857  154.6365 C.3     1  UNL1        0.0174
     29 C         136.7818  142.0606  156.0931 C.3     1  UNL1        0.0720
@<TRIPOS>BOND
     1    16    17    1
     2    17    10    1
     3    10    11   ar
     4    11    12   ar
     5    12     1    1
     6     1     2   ar
     7     2     3   ar
     8     3     4   ar
     9     4     5   ar
    10     5     6   ar
    11     6    18    1
    12    18    19    1
    13    19    20    1
    14    20    21    1
    15    21    24    1
    16    24    25    1
    17    25    26    1
    18    26    27    1
    19    27    28    1
    20    28    29    1
    21    21    22    1
    22    22    23    1
    23     6     7   ar
    24     7     8   ar
    25     8     9   ar
    26    12    13   ar
    27    13    14   ar
    28    14    15   ar
    29    15    10   ar
    30     9     1   ar
    31     8     4   ar
    32    23    18    1
    33    29    24    1
