@<TRIPOS>MOLECULE
*****
 44 47 0 0 0
SMALL
GASTEIGER

@<TRIPOS>ATOM
      1 C         140.1810  141.6361  168.2304 C.2     1  UNL1        0.0706
      2 C         139.6504  140.5735  169.1465 C.2     1  UNL1        0.0283
      3 C         139.8895  140.6692  170.6242 C.3     1  UNL1        0.0470
      4 N         138.8806  139.4150  168.5848 N.pl3   1  UNL1       -0.3193
      5 C         138.6414  139.3192  167.1071 C.2     1  UNL1        0.0264
      6 C         137.8716  138.1608  166.5455 C.3     1  UNL1        0.0470
      7 C         139.1721  140.3819  166.1911 C.2     1  UNL1        0.0485
      8 C         139.9419  141.5403  166.7527 C.3     1  UNL1        0.0795
      9 H         138.5323  138.7176  169.1861 H       1  UNL1        0.1516
     10 C         140.4725  142.6030  165.8366 C.ar    1  UNL1       -0.0078
     11 C         139.5773  143.7180  165.3835 C.ar    1  UNL1       -0.0032
     12 C         140.1079  144.7806  164.4674 C.ar    1  UNL1        0.0060
     13 C         141.5337  144.7283  164.0044 C.ar    1  UNL1        0.0752
     14 C         142.4290  143.6133  164.4576 C.ar    1  UNL1        0.2898
     15 C         141.8983  142.5506  165.3737 C.ar    1  UNL1        0.0716
     16 N         143.8547  143.5609  163.9947 N.pl3   1  UNL1        0.0809
     17 O         144.8928  142.8824  164.8385 O.2     1  UNL1        0.0415
     18 O         144.2424  144.1870  162.6879 O.co2   1  UNL1       -0.5760
     19 C         138.9329  140.2861  164.7133 C.2     1  UNL1        0.2434
     20 O         139.8742  139.4989  163.8507 O.2     1  UNL1       -0.2704
     21 N         137.7524  140.9776  164.0983 N.am    1  UNL1       -0.3010
     22 H         137.1346  141.4943  164.6645 H       1  UNL1        0.1497
     23 C         137.5132  140.8819  162.6206 C.3     1  UNL1        0.0911
     24 C         138.5909  141.2861  161.6587 C.3     1  UNL1        0.0370
     25 C         139.2573  142.6283  161.5944 C.3     1  UNL1        0.0204
     26 C         140.2696  142.5908  160.4881 C.3     1  UNL1        0.0722
     27 N         140.2288  141.2253  159.8686 N.3     1  UNL1       -0.2723
     28 C         139.1913  140.4190  160.5921 C.3     1  UNL1        0.0738
     29 C         141.0766  140.7497  158.7263 C.3     1  UNL1        0.0768
     30 C         142.3452  139.9962  158.9967 C.3     1  UNL1        0.0437
     31 C         142.7548  139.6994  160.4088 C.ar    1  UNL1       -0.0208
     32 C         142.3442  138.4088  161.0533 C.ar    1  UNL1       -0.0043
     33 C         142.7538  138.1120  162.4655 C.ar    1  UNL1        0.0035
     34 C         143.5741  139.1059  163.2331 C.ar    1  UNL1        0.0714
     35 C         143.9848  140.3966  162.5885 C.ar    1  UNL1        0.0035
     36 C         143.5752  140.6934  161.1763 C.ar    1  UNL1       -0.0043
     37 C         143.9837  138.8091  164.6452 C.3     1  UNL1        0.4186
     38 F         144.3934  138.5123  166.0573 F       1  UNL1       -0.1659
     39 F         145.2981  139.4918  164.4074 F       1  UNL1       -0.1659
     40 F         142.6694  138.1265  164.8829 F       1  UNL1       -0.1659
     41 C         140.9508  142.7945  168.7921 C.2     1  UNL1        0.3388
     42 O         140.2209  143.9788  169.3529 O.2     1  UNL1       -0.2452
     43 C         143.1927  142.3462  170.0260 C.3     1  UNL1        0.2559
     44 O         142.4506  142.7687  168.7929 O.3     1  UNL1       -0.4415
@<TRIPOS>UNITY_ATOM_ATTR
16 1
charge 1
18 1
charge -1
@<TRIPOS>BOND
     1    43    44    1
     2    44    41    1
     3    41    42    2
     4    41     1    1
     5     1     2    2
     6     2     3    1
     7     2     4    1
     8     4     5    1
     9     5     6    1
    10     5     7    2
    11     7    19    1
    12    19    20    2
    13    19    21   am
    14    21    23    1
    15    24    23    1
    16    24    25    1
    17    25    26    1
    18    26    27    1
    19    27    29    1
    20    29    30    1
    21    30    31    1
    22    31    32   ar
    23    32    33   ar
    24    33    34   ar
    25    34    37    1
    26    37    38    1
    27    37    39    1
    28    37    40    1
    29    34    35   ar
    30    35    36   ar
    31    27    28    1
    32     7     8    1
    33     8    10    1
    34    10    11   ar
    35    11    12   ar
    36    12    13   ar
    37    13    14   ar
    38    14    16    1
    39    16    17    2
    40    16    18    1
    41    14    15   ar
    42     8     1    1
    43    15    10   ar
    44    28    24    1
    45    36    31   ar
    46     4     9    1
    47    21    22    1
@<TRIPOS>MOLECULE
*****
 44 47 0 0 0
SMALL
GASTEIGER

@<TRIPOS>ATOM
      1 C         141.2538  140.2944  168.5657 C.2     1  UNL1        0.0706
      2 C         140.0734  140.0745  169.4646 C.2     1  UNL1        0.0283
      3 C         140.1780  140.3826  170.9289 C.3     1  UNL1        0.0470
      4 N         138.7883  139.5465  168.8992 N.pl3   1  UNL1       -0.3193
      5 C         138.6836  139.2384  167.4350 C.2     1  UNL1        0.0264
      6 C         137.3985  138.7103  166.8696 C.3     1  UNL1        0.0470
      7 C         139.8640  139.4583  166.5361 C.2     1  UNL1        0.0485
      8 C         141.1492  139.9864  167.1014 C.3     1  UNL1        0.0795
      9 H         138.0135  139.4021  169.4892 H       1  UNL1        0.1516
     10 C         142.3297  140.2063  166.2024 C.ar    1  UNL1       -0.0078
     11 C         143.3165  139.0995  165.9761 C.ar    1  UNL1       -0.0032
     12 C         144.4969  139.3194  165.0771 C.ar    1  UNL1        0.0060
     13 C         144.6906  140.6461  164.4045 C.ar    1  UNL1        0.0752
     14 C         143.7038  141.7529  164.6309 C.ar    1  UNL1        0.2898
     15 C         142.5233  141.5330  165.5299 C.ar    1  UNL1        0.0716
     16 N         143.8975  143.0796  163.9583 N.pl3   1  UNL1        0.0809
     17 O         143.1543  144.2858  164.4509 O.2     1  UNL1        0.0415
     18 O         144.8343  143.2000  162.7931 O.co2   1  UNL1       -0.5760
     19 C         139.7594  139.1502  165.0717 C.2     1  UNL1        0.2434
     20 O         139.0942  140.1250  164.1459 O.2     1  UNL1       -0.2704
     21 N         140.3201  137.8674  164.5333 N.am    1  UNL1       -0.3010
     22 H         140.7567  137.2276  165.1410 H       1  UNL1        0.1497
     23 C         140.2155  137.5592  163.0691 C.3     1  UNL1        0.0911
     24 C         140.6530  138.5750  162.0558 C.3     1  UNL1        0.0370
     25 C         141.9867  139.2603  162.0134 C.3     1  UNL1        0.0204
     26 C         141.9916  140.1926  160.8383 C.3     1  UNL1        0.0722
     27 N         140.6611  140.0836  160.1545 N.3     1  UNL1       -0.2723
     28 C         139.8338  139.0838  160.9069 C.3     1  UNL1        0.0738
     29 C         140.2329  140.8412  158.9328 C.3     1  UNL1        0.0768
     30 C         139.5673  142.1781  159.0742 C.3     1  UNL1        0.0437
     31 C         139.3698  142.7773  160.4350 C.ar    1  UNL1       -0.0208
     32 C         138.1150  142.4915  161.2054 C.ar    1  UNL1       -0.0043
     33 C         137.9174  143.0908  162.5662 C.ar    1  UNL1        0.0035
     34 C         138.9747  143.9759  163.1566 C.ar    1  UNL1        0.0714
     35 C         140.2296  144.2618  162.3862 C.ar    1  UNL1        0.0035
     36 C         140.4272  143.6625  161.0253 C.ar    1  UNL1       -0.0043
     37 C         138.7771  144.5752  164.5174 C.3     1  UNL1        0.4186
     38 F         138.5796  145.1745  165.8782 F       1  UNL1       -0.1659
     39 F         137.3821  144.0254  164.5570 F       1  UNL1       -0.1659
     40 F         140.1722  145.1250  164.4779 F       1  UNL1       -0.1659
     41 C         142.5390  140.8225  169.1310 C.2     1  UNL1        0.3388
     42 O         143.5003  139.8901  169.8066 O.2     1  UNL1       -0.2452
     43 C         142.6325  143.1927  170.1909 C.3     1  UNL1        0.2559
     44 O         142.8628  142.2829  169.0207 O.3     1  UNL1       -0.4415
@<TRIPOS>UNITY_ATOM_ATTR
16 1
charge 1
18 1
charge -1
@<TRIPOS>BOND
     1    43    44    1
     2    44    41    1
     3    41    42    2
     4    41     1    1
     5     1     2    2
     6     2     3    1
     7     2     4    1
     8     4     5    1
     9     5     6    1
    10     5     7    2
    11     7    19    1
    12    19    20    2
    13    19    21   am
    14    21    23    1
    15    24    23    1
    16    24    25    1
    17    25    26    1
    18    26    27    1
    19    27    29    1
    20    29    30    1
    21    30    31    1
    22    31    32   ar
    23    32    33   ar
    24    33    34   ar
    25    34    37    1
    26    37    38    1
    27    37    39    1
    28    37    40    1
    29    34    35   ar
    30    35    36   ar
    31    27    28    1
    32     7     8    1
    33     8    10    1
    34    10    11   ar
    35    11    12   ar
    36    12    13   ar
    37    13    14   ar
    38    14    16    1
    39    16    17    2
    40    16    18    1
    41    14    15   ar
    42     8     1    1
    43    15    10   ar
    44    28    24    1
    45    36    31   ar
    46     4     9    1
    47    21    22    1
@<TRIPOS>MOLECULE
*****
 44 47 0 0 0
SMALL
GASTEIGER

@<TRIPOS>ATOM
      1 C         141.8636  142.7132  159.1681 C.2     1  UNL1        0.0706
      2 C         142.1563  141.7562  158.0508 C.2     1  UNL1        0.0283
      3 C         141.9449  142.1783  156.6270 C.3     1  UNL1        0.0470
      4 N         142.6603  140.3770  158.3572 N.pl3   1  UNL1       -0.3193
      5 C         142.8717  139.9548  159.7810 C.2     1  UNL1        0.0264
      6 C         143.3757  138.5757  160.0874 C.3     1  UNL1        0.0470
      7 C         142.5790  140.9118  160.8983 C.2     1  UNL1        0.0485
      8 C         142.0750  142.2910  160.5919 C.3     1  UNL1        0.0795
      9 H         142.8524  139.7489  157.6239 H       1  UNL1        0.1516
     10 C         141.7823  143.2480  161.7093 C.ar    1  UNL1       -0.0078
     11 C         142.8745  144.1185  162.2566 C.ar    1  UNL1       -0.0032
     12 C         142.5819  145.0755  163.3739 C.ar    1  UNL1        0.0060
     13 C         141.1971  145.1620  163.9440 C.ar    1  UNL1        0.0752
     14 C         140.1050  144.2916  163.3968 C.ar    1  UNL1        0.2898
     15 C         140.3976  143.3345  162.2793 C.ar    1  UNL1        0.0716
     16 N         138.7202  144.3781  163.9668 N.pl3   1  UNL1        0.0809
     17 O         137.5316  144.0990  163.0954 O.2     1  UNL1        0.0415
     18 O         138.5241  144.7436  165.4083 O.co2   1  UNL1       -0.5760
     19 C         142.7904  140.4897  162.3221 C.2     1  UNL1        0.2434
     20 O         141.7680  139.6349  163.0106 O.2     1  UNL1       -0.2704
     21 N         144.0241  140.9224  163.0574 N.am    1  UNL1       -0.3010
     22 H         144.6951  141.4834  162.6055 H       1  UNL1        0.1497
     23 C         144.2355  140.5003  164.4811 C.3     1  UNL1        0.0911
     24 C         143.2185  140.8514  165.5264 C.3     1  UNL1        0.0370
     25 C         142.9003  142.2322  166.0182 C.3     1  UNL1        0.0204
     26 C         141.8263  142.1175  167.0591 C.3     1  UNL1        0.0722
     27 N         141.4808  140.6657  167.2106 N.3     1  UNL1       -0.2723
     28 C         142.3412  139.8833  166.2633 C.3     1  UNL1        0.0738
     29 C         140.4550  140.0964  168.1452 C.3     1  UNL1        0.0768
     30 C         139.1125  139.6798  167.6216 C.3     1  UNL1        0.0437
     31 C         138.8828  139.5778  166.1428 C.ar    1  UNL1       -0.0208
     32 C         138.9979  138.2494  165.4559 C.ar    1  UNL1       -0.0043
     33 C         138.7683  138.1474  163.9770 C.ar    1  UNL1        0.0035
     34 C         138.4235  139.3738  163.1852 C.ar    1  UNL1        0.0714
     35 C         138.3084  140.7023  163.8722 C.ar    1  UNL1        0.0035
     36 C         138.5381  140.8043  165.3511 C.ar    1  UNL1       -0.0043
     37 C         138.1939  139.2718  161.7064 C.3     1  UNL1        0.4186
     38 F         137.9643  139.1698  160.2276 F       1  UNL1       -0.1659
     39 F         139.0276  140.5002  161.4922 F       1  UNL1       -0.1659
     40 F         137.3602  138.0434  161.9206 F       1  UNL1       -0.1659
     41 C         141.3596  144.0923  158.8617 C.2     1  UNL1        0.3388
     42 O         139.8864  144.3739  158.8807 O.2     1  UNL1       -0.2452
     43 C         142.2009  145.9455  157.2468 C.3     1  UNL1        0.2559
     44 O         142.3288  145.1899  158.5363 O.3     1  UNL1       -0.4415
@<TRIPOS>UNITY_ATOM_ATTR
16 1
charge 1
18 1
charge -1
@<TRIPOS>BOND
     1    43    44    1
     2    44    41    1
     3    41    42    2
     4    41     1    1
     5     1     2    2
     6     2     3    1
     7     2     4    1
     8     4     5    1
     9     5     6    1
    10     5     7    2
    11     7    19    1
    12    19    20    2
    13    19    21   am
    14    21    23    1
    15    24    23    1
    16    24    25    1
    17    25    26    1
    18    26    27    1
    19    27    29    1
    20    29    30    1
    21    30    31    1
    22    31    32   ar
    23    32    33   ar
    24    33    34   ar
    25    34    37    1
    26    37    38    1
    27    37    39    1
    28    37    40    1
    29    34    35   ar
    30    35    36   ar
    31    27    28    1
    32     7     8    1
    33     8    10    1
    34    10    11   ar
    35    11    12   ar
    36    12    13   ar
    37    13    14   ar
    38    14    16    1
    39    16    17    2
    40    16    18    1
    41    14    15   ar
    42     8     1    1
    43    15    10   ar
    44    28    24    1
    45    36    31   ar
    46     4     9    1
    47    21    22    1
@<TRIPOS>MOLECULE
*****
 44 47 0 0 0
SMALL
GASTEIGER

@<TRIPOS>ATOM
      1 C         140.2367  141.0053  167.9797 C.2     1  UNL1        0.0706
      2 C         139.2275  140.2777  168.8176 C.2     1  UNL1        0.0283
      3 C         138.9972  140.6904  170.2413 C.3     1  UNL1        0.0470
      4 N         138.4485  139.1375  168.2319 N.pl3   1  UNL1       -0.3193
      5 C         138.6787  138.7248  166.8083 C.2     1  UNL1        0.0264
      6 C         137.8996  137.5846  166.2226 C.3     1  UNL1        0.0470
      7 C         139.6879  139.4524  165.9704 C.2     1  UNL1        0.0485
      8 C         140.4669  140.5926  166.5561 C.3     1  UNL1        0.0795
      9 H         137.7860  138.6600  168.7818 H       1  UNL1        0.1516
     10 C         141.4762  141.3201  165.7182 C.ar    1  UNL1       -0.0078
     11 C         141.1820  142.7056  165.2242 C.ar    1  UNL1       -0.0032
     12 C         142.1912  143.4331  164.3863 C.ar    1  UNL1        0.0060
     13 C         143.4947  142.7752  164.0423 C.ar    1  UNL1        0.0752
     14 C         143.7888  141.3898  164.5362 C.ar    1  UNL1        0.2898
     15 C         142.7796  140.6622  165.3742 C.ar    1  UNL1        0.0716
     16 N         145.0922  140.7319  164.1923 N.pl3   1  UNL1        0.0809
     17 O         145.3563  139.3197  164.6234 O.2     1  UNL1        0.0415
     18 O         146.1315  141.4862  163.4171 O.co2   1  UNL1       -0.5760
     19 C         139.9182  139.0397  164.5467 C.2     1  UNL1        0.2434
     20 O         139.2396  139.7796  163.4323 O.2     1  UNL1       -0.2704
     21 N         140.8270  137.8871  164.2376 N.am    1  UNL1       -0.3010
     22 H         141.2723  137.4015  164.9691 H       1  UNL1        0.1497
     23 C         141.0573  137.4744  162.8140 C.3     1  UNL1        0.0911
     24 C         141.7044  138.4266  161.8525 C.3     1  UNL1        0.0370
     25 C         143.0971  138.9739  161.9564 C.3     1  UNL1        0.0204
     26 C         143.3260  139.8841  160.7863 C.3     1  UNL1        0.0722
     27 N         142.0747  139.8993  159.9592 N.3     1  UNL1       -0.2723
     28 C         141.0726  138.9985  160.6181 C.3     1  UNL1        0.0738
     29 C         141.8628  140.6786  158.6951 C.3     1  UNL1        0.0768
     30 C         140.6586  141.5612  158.5511 C.3     1  UNL1        0.0437
     31 C         140.0033  142.1407  159.7696 C.ar    1  UNL1       -0.0208
     32 C         140.7216  143.1715  160.5889 C.ar    1  UNL1       -0.0043
     33 C         140.0663  143.7509  161.8075 C.ar    1  UNL1        0.0035
     34 C         138.6927  143.2995  162.2067 C.ar    1  UNL1        0.0714
     35 C         137.9744  142.2686  161.3874 C.ar    1  UNL1        0.0035
     36 C         138.6297  141.6892  160.1688 C.ar    1  UNL1       -0.0043
     37 C         138.0375  143.8790  163.4253 C.3     1  UNL1        0.4186
     38 F         137.3822  144.4584  164.6438 F       1  UNL1       -0.1659
     39 F         137.9643  145.2163  162.7499 F       1  UNL1       -0.1659
     40 F         138.1107  142.5416  164.1006 F       1  UNL1       -0.1659
     41 C         141.0157  142.1455  168.5654 C.2     1  UNL1        0.3388
     42 O         142.4253  141.9301  169.0307 O.2     1  UNL1       -0.2452
     43 C         140.3845  144.2134  170.0060 C.3     1  UNL1        0.2559
     44 O         140.3851  143.5011  168.6859 O.3     1  UNL1       -0.4415
@<TRIPOS>UNITY_ATOM_ATTR
16 1
charge 1
18 1
charge -1
@<TRIPOS>BOND
     1    43    44    1
     2    44    41    1
     3    41    42    2
     4    41     1    1
     5     1     2    2
     6     2     3    1
     7     2     4    1
     8     4     5    1
     9     5     6    1
    10     5     7    2
    11     7    19    1
    12    19    20    2
    13    19    21   am
    14    21    23    1
    15    24    23    1
    16    24    25    1
    17    25    26    1
    18    26    27    1
    19    27    29    1
    20    29    30    1
    21    30    31    1
    22    31    32   ar
    23    32    33   ar
    24    33    34   ar
    25    34    37    1
    26    37    38    1
    27    37    39    1
    28    37    40    1
    29    34    35   ar
    30    35    36   ar
    31    27    28    1
    32     7     8    1
    33     8    10    1
    34    10    11   ar
    35    11    12   ar
    36    12    13   ar
    37    13    14   ar
    38    14    16    1
    39    16    17    2
    40    16    18    1
    41    14    15   ar
    42     8     1    1
    43    15    10   ar
    44    28    24    1
    45    36    31   ar
    46     4     9    1
    47    21    22    1
@<TRIPOS>MOLECULE
*****
 44 47 0 0 0
SMALL
GASTEIGER

@<TRIPOS>ATOM
      1 C         140.0831  141.6520  168.0931 C.2     1  UNL1        0.0706
      2 C         139.6285  140.5242  168.9714 C.2     1  UNL1        0.0283
      3 C         139.8670  140.5830  170.4512 C.3     1  UNL1        0.0470
      4 N         138.9355  139.3376  168.3700 N.pl3   1  UNL1       -0.3193
      5 C         138.6970  139.2788  166.8902 C.2     1  UNL1        0.0264
      6 C         138.0039  138.0923  166.2888 C.3     1  UNL1        0.0470
      7 C         139.1515  140.4066  166.0119 C.2     1  UNL1        0.0485
      8 C         139.8446  141.5932  166.6134 C.3     1  UNL1        0.0795
      9 H         138.6371  138.5974  168.9464 H       1  UNL1        0.1516
     10 C         140.2992  142.7210  165.7350 C.ar    1  UNL1       -0.0078
     11 C         139.3928  143.8900  165.4861 C.ar    1  UNL1       -0.0032
     12 C         139.8473  145.0178  164.6078 C.ar    1  UNL1        0.0060
     13 C         141.2083  144.9766  163.9783 C.ar    1  UNL1        0.0752
     14 C         142.1146  143.8076  164.2272 C.ar    1  UNL1        0.2898
     15 C         141.6601  142.6798  165.1055 C.ar    1  UNL1        0.0716
     16 N         143.4755  143.7664  163.5977 N.pl3   1  UNL1        0.0809
     17 O         144.6357  143.1932  164.3563 O.2     1  UNL1        0.0415
     18 O         143.6762  144.2984  162.2097 O.co2   1  UNL1       -0.5760
     19 C         138.9131  140.3479  164.5321 C.2     1  UNL1        0.2434
     20 O         139.9367  139.7222  163.6318 O.2     1  UNL1       -0.2704
     21 N         137.6509  140.9148  163.9528 N.am    1  UNL1       -0.3010
     22 H         136.9791  141.3254  164.5438 H       1  UNL1        0.1497
     23 C         137.4124  140.8561  162.4731 C.3     1  UNL1        0.0911
     24 C         138.1126  141.8199  161.5617 C.3     1  UNL1        0.0370
     25 C         138.7715  143.1030  161.9736 C.3     1  UNL1        0.0204
     26 C         139.3430  143.7460  160.7449 C.3     1  UNL1        0.0722
     27 N         139.0373  142.8604  159.5734 N.3     1  UNL1       -0.2723
     28 C         138.2769  141.6700  160.0783 C.3     1  UNL1        0.0738
     29 C         139.4241  143.1196  158.1475 C.3     1  UNL1        0.0768
     30 C         140.4055  142.2168  157.4606 C.3     1  UNL1        0.0437
     31 C         141.1964  141.2231  158.2588 C.ar    1  UNL1       -0.0208
     32 C         141.0214  139.7539  158.0125 C.ar    1  UNL1       -0.0043
     33 C         141.8123  138.7602  158.8108 C.ar    1  UNL1        0.0035
     34 C         142.7782  139.2358  159.8552 C.ar    1  UNL1        0.0714
     35 C         142.9533  140.7050  160.1014 C.ar    1  UNL1        0.0035
     36 C         142.1623  141.6987  159.3032 C.ar    1  UNL1       -0.0043
     37 C         143.5691  138.2421  160.6533 C.3     1  UNL1        0.4186
     38 F         144.3600  137.2484  161.4515 F       1  UNL1       -0.1659
     39 F         142.3594  137.3611  160.7553 F       1  UNL1       -0.1659
     40 F         144.7789  139.1230  160.5513 F       1  UNL1       -0.1659
     41 C         140.7762  142.8386  168.6945 C.2     1  UNL1        0.3388
     42 O         140.0081  144.0982  168.9650 O.2     1  UNL1       -0.2452
     43 C         143.1678  141.9857  168.1445 C.3     1  UNL1        0.2559
     44 O         142.2373  142.7655  169.0255 O.3     1  UNL1       -0.4415
@<TRIPOS>UNITY_ATOM_ATTR
16 1
charge 1
18 1
charge -1
@<TRIPOS>BOND
     1    43    44    1
     2    44    41    1
     3    41    42    2
     4    41     1    1
     5     1     2    2
     6     2     3    1
     7     2     4    1
     8     4     5    1
     9     5     6    1
    10     5     7    2
    11     7    19    1
    12    19    20    2
    13    19    21   am
    14    21    23    1
    15    24    23    1
    16    24    25    1
    17    25    26    1
    18    26    27    1
    19    27    29    1
    20    29    30    1
    21    30    31    1
    22    31    32   ar
    23    32    33   ar
    24    33    34   ar
    25    34    37    1
    26    37    38    1
    27    37    39    1
    28    37    40    1
    29    34    35   ar
    30    35    36   ar
    31    27    28    1
    32     7     8    1
    33     8    10    1
    34    10    11   ar
    35    11    12   ar
    36    12    13   ar
    37    13    14   ar
    38    14    16    1
    39    16    17    2
    40    16    18    1
    41    14    15   ar
    42     8     1    1
    43    15    10   ar
    44    28    24    1
    45    36    31   ar
    46     4     9    1
    47    21    22    1
@<TRIPOS>MOLECULE
*****
 44 47 0 0 0
SMALL
GASTEIGER

@<TRIPOS>ATOM
      1 C         140.9428  143.4004  158.9682 C.2     1  UNL1        0.0706
      2 C         140.0938  142.8517  157.8601 C.2     1  UNL1        0.0283
      3 C         140.3533  143.2647  156.4415 C.3     1  UNL1        0.0470
      4 N         138.9852  141.8901  158.1703 N.pl3   1  UNL1       -0.3193
      5 C         138.7257  141.4771  159.5887 C.2     1  UNL1        0.0264
      6 C         137.6171  140.5154  159.8990 C.3     1  UNL1        0.0470
      7 C         139.5747  142.0257  160.6969 C.2     1  UNL1        0.0485
      8 C         140.6833  142.9874  160.3867 C.3     1  UNL1        0.0795
      9 H         138.4280  141.5300  157.4430 H       1  UNL1        0.1516
     10 C         141.5323  143.5360  161.4949 C.ar    1  UNL1       -0.0078
     11 C         141.1399  144.8120  162.1790 C.ar    1  UNL1       -0.0032
     12 C         141.9888  145.3607  163.2872 C.ar    1  UNL1        0.0060
     13 C         143.2303  144.6333  163.7114 C.ar    1  UNL1        0.0752
     14 C         143.6227  143.3574  163.0274 C.ar    1  UNL1        0.2898
     15 C         142.7737  142.8087  161.9191 C.ar    1  UNL1        0.0716
     16 N         144.8641  142.6301  163.4515 N.pl3   1  UNL1        0.0809
     17 O         145.6804  141.8851  162.4373 O.2     1  UNL1        0.0415
     18 O         145.2891  142.6477  164.8899 O.co2   1  UNL1       -0.5760
     19 C         139.3151  141.6127  162.1155 C.2     1  UNL1        0.2434
     20 O         139.8455  140.3054  162.6250 O.2     1  UNL1       -0.2704
     21 N         138.5252  142.5070  163.0244 N.am    1  UNL1       -0.3010
     22 H         138.1770  143.3650  162.6899 H       1  UNL1        0.1497
     23 C         138.2656  142.0941  164.4428 C.3     1  UNL1        0.0911
     24 C         139.4137  141.8863  165.3855 C.3     1  UNL1        0.0370
     25 C         140.3898  142.9347  165.8307 C.3     1  UNL1        0.0204
     26 C         141.3667  142.2900  166.7689 C.3     1  UNL1        0.0722
     27 N         140.9943  140.8432  166.9036 N.3     1  UNL1       -0.2723
     28 C         139.7873  140.5938  166.0486 C.3     1  UNL1        0.0738
     29 C         141.7042  139.8248  167.7454 C.3     1  UNL1        0.0768
     30 C         142.8442  139.0385  167.1691 C.3     1  UNL1        0.0437
     31 C         142.9023  138.7730  165.6940 C.ar    1  UNL1       -0.0208
     32 C         141.8682  137.8996  165.0478 C.ar    1  UNL1       -0.0043
     33 C         141.9263  137.6342  163.5725 C.ar    1  UNL1        0.0035
     34 C         143.0186  138.2422  162.7436 C.ar    1  UNL1        0.0714
     35 C         144.0528  139.1157  163.3898 C.ar    1  UNL1        0.0035
     36 C         143.9947  139.3811  164.8650 C.ar    1  UNL1       -0.0043
     37 C         143.0767  137.9768  161.2684 C.3     1  UNL1        0.4186
     38 F         143.1348  137.7114  159.7932 F       1  UNL1       -0.1659
     39 F         141.7359  138.6275  161.0985 F       1  UNL1       -0.1659
     40 F         144.4175  137.3261  161.4383 F       1  UNL1       -0.1659
     41 C         142.0514  144.3620  158.6580 C.2     1  UNL1        0.3388
     42 O         141.7575  145.8266  158.5213 O.2     1  UNL1       -0.2452
     43 C         143.6954  142.4336  158.0852 C.3     1  UNL1        0.2559
     44 O         143.4539  143.8592  158.4844 O.3     1  UNL1       -0.4415
@<TRIPOS>UNITY_ATOM_ATTR
16 1
charge 1
18 1
charge -1
@<TRIPOS>BOND
     1    43    44    1
     2    44    41    1
     3    41    42    2
     4    41     1    1
     5     1     2    2
     6     2     3    1
     7     2     4    1
     8     4     5    1
     9     5     6    1
    10     5     7    2
    11     7    19    1
    12    19    20    2
    13    19    21   am
    14    21    23    1
    15    24    23    1
    16    24    25    1
    17    25    26    1
    18    26    27    1
    19    27    29    1
    20    29    30    1
    21    30    31    1
    22    31    32   ar
    23    32    33   ar
    24    33    34   ar
    25    34    37    1
    26    37    38    1
    27    37    39    1
    28    37    40    1
    29    34    35   ar
    30    35    36   ar
    31    27    28    1
    32     7     8    1
    33     8    10    1
    34    10    11   ar
    35    11    12   ar
    36    12    13   ar
    37    13    14   ar
    38    14    16    1
    39    16    17    2
    40    16    18    1
    41    14    15   ar
    42     8     1    1
    43    15    10   ar
    44    28    24    1
    45    36    31   ar
    46     4     9    1
    47    21    22    1
@<TRIPOS>MOLECULE
*****
 44 47 0 0 0
SMALL
GASTEIGER

@<TRIPOS>ATOM
      1 C         139.5006  140.3622  158.4276 C.2     1  UNL1        0.0706
      2 C         140.2807  139.6472  157.3646 C.2     1  UNL1        0.0283
      3 C         139.9251  139.8344  155.9194 C.3     1  UNL1        0.0470
      4 N         141.4165  138.7449  157.7467 N.pl3   1  UNL1       -0.3193
      5 C         141.7721  138.5577  159.1918 C.2     1  UNL1        0.0264
      6 C         142.9079  137.6554  159.5739 C.3     1  UNL1        0.0470
      7 C         140.9920  139.2727  160.2548 C.2     1  UNL1        0.0485
      8 C         139.8562  140.1749  159.8728 C.3     1  UNL1        0.0795
      9 H         141.9285  138.2756  157.0490 H       1  UNL1        0.1516
     10 C         139.0761  140.8899  160.9359 C.ar    1  UNL1       -0.0078
     11 C         138.0226  140.1580  161.7133 C.ar    1  UNL1       -0.0032
     12 C         137.2424  140.8729  162.7764 C.ar    1  UNL1        0.0060
     13 C         137.5158  142.3199  163.0621 C.ar    1  UNL1        0.0752
     14 C         138.5692  143.0519  162.2847 C.ar    1  UNL1        0.2898
     15 C         139.3494  142.3369  161.2216 C.ar    1  UNL1        0.0716
     16 N         138.8426  144.4988  162.5704 N.pl3   1  UNL1        0.0809
     17 O         139.2575  145.4173  161.4594 O.2     1  UNL1        0.0415
     18 O         138.7009  145.0273  163.9670 O.co2   1  UNL1       -0.5760
     19 C         141.3476  139.0855  161.7001 C.2     1  UNL1        0.2434
     20 O         142.2364  140.0785  162.3885 O.2     1  UNL1       -0.2704
     21 N         140.8144  137.9052  162.4568 N.am    1  UNL1       -0.3010
     22 H         140.2311  137.2534  162.0049 H       1  UNL1        0.1497
     23 C         141.1700  137.7179  163.9019 C.3     1  UNL1        0.0911
     24 C         140.3410  138.3695  164.9688 C.3     1  UNL1        0.0370
     25 C         138.8425  138.3874  165.0332 C.3     1  UNL1        0.0204
     26 C         138.4403  139.1465  166.2628 C.3     1  UNL1        0.0722
     27 N         139.6902  139.5979  166.9584 N.3     1  UNL1       -0.2723
     28 C         140.8649  139.1177  166.1587 C.3     1  UNL1        0.0738
     29 C         139.7543  140.3903  168.2303 C.3     1  UNL1        0.0768
     30 C         140.3276  141.7765  168.2224 C.3     1  UNL1        0.0437
     31 C         141.2115  142.2160  167.0931 C.ar    1  UNL1       -0.0208
     32 C         140.6047  142.7562  165.8322 C.ar    1  UNL1       -0.0043
     33 C         141.4888  143.1958  164.7029 C.ar    1  UNL1        0.0035
     34 C         142.9796  143.0952  164.8346 C.ar    1  UNL1        0.0714
     35 C         143.5864  142.5550  166.0955 C.ar    1  UNL1        0.0035
     36 C         142.7024  142.1154  167.2248 C.ar    1  UNL1       -0.0043
     37 C         143.8636  143.5348  163.7053 C.3     1  UNL1        0.4186
     38 F         144.7476  143.9744  162.5760 F       1  UNL1       -0.1659
     39 F         145.0749  143.1712  164.5119 F       1  UNL1       -0.1659
     40 F         142.6523  143.8983  162.8986 F       1  UNL1       -0.1659
     41 C         138.3648  141.2644  158.0456 C.2     1  UNL1        0.3388
     42 O         138.5890  142.7427  157.9255 O.2     1  UNL1       -0.2452
     43 C         136.3269  140.9343  156.4683 C.3     1  UNL1        0.2559
     44 O         137.0049  140.6884  157.7836 O.3     1  UNL1       -0.4415
@<TRIPOS>UNITY_ATOM_ATTR
16 1
charge 1
18 1
charge -1
@<TRIPOS>BOND
     1    43    44    1
     2    44    41    1
     3    41    42    2
     4    41     1    1
     5     1     2    2
     6     2     3    1
     7     2     4    1
     8     4     5    1
     9     5     6    1
    10     5     7    2
    11     7    19    1
    12    19    20    2
    13    19    21   am
    14    21    23    1
    15    24    23    1
    16    24    25    1
    17    25    26    1
    18    26    27    1
    19    27    29    1
    20    29    30    1
    21    30    31    1
    22    31    32   ar
    23    32    33   ar
    24    33    34   ar
    25    34    37    1
    26    37    38    1
    27    37    39    1
    28    37    40    1
    29    34    35   ar
    30    35    36   ar
    31    27    28    1
    32     7     8    1
    33     8    10    1
    34    10    11   ar
    35    11    12   ar
    36    12    13   ar
    37    13    14   ar
    38    14    16    1
    39    16    17    2
    40    16    18    1
    41    14    15   ar
    42     8     1    1
    43    15    10   ar
    44    28    24    1
    45    36    31   ar
    46     4     9    1
    47    21    22    1
@<TRIPOS>MOLECULE
*****
 44 47 0 0 0
SMALL
GASTEIGER

@<TRIPOS>ATOM
      1 C         140.1464  141.6596  168.0941 C.2     1  UNL1        0.0706
      2 C         139.6854  140.5696  169.0157 C.2     1  UNL1        0.0283
      3 C         139.9644  140.6631  170.4866 C.3     1  UNL1        0.0470
      4 N         138.9453  139.3861  168.4664 N.pl3   1  UNL1       -0.3193
      5 C         138.6662  139.2926  166.9956 C.2     1  UNL1        0.0264
      6 C         137.9262  138.1091  166.4464 C.3     1  UNL1        0.0470
      7 C         139.1272  140.3826  166.0740 C.2     1  UNL1        0.0485
      8 C         139.8673  141.5661  166.6233 C.3     1  UNL1        0.0795
      9 H         138.6427  138.6707  169.0713 H       1  UNL1        0.1516
     10 C         140.3283  142.6561  165.7016 C.ar    1  UNL1       -0.0078
     11 C         139.3956  143.7718  165.3340 C.ar    1  UNL1       -0.0032
     12 C         139.8565  144.8618  164.4124 C.ar    1  UNL1        0.0060
     13 C         141.2503  144.8361  163.8583 C.ar    1  UNL1        0.0752
     14 C         142.1830  143.7203  164.2259 C.ar    1  UNL1        0.2898
     15 C         141.7220  142.6303  165.1475 C.ar    1  UNL1        0.0716
     16 N         143.5766  143.6946  163.6718 N.pl3   1  UNL1        0.0809
     17 O         144.4697  142.5201  163.9424 O.2     1  UNL1        0.0415
     18 O         144.0772  144.8432  162.8473 O.co2   1  UNL1       -0.5760
     19 C         138.8482  140.2891  164.6031 C.2     1  UNL1        0.2434
     20 O         137.5919  140.8835  164.0389 O.2     1  UNL1       -0.2704
     21 N         139.8254  139.6013  163.6966 N.am    1  UNL1       -0.3010
     22 H         140.6500  139.2112  164.0670 H       1  UNL1        0.1497
     23 C         139.5464  139.5078  162.2258 C.3     1  UNL1        0.0911
     24 C         139.3355  140.7563  161.4215 C.3     1  UNL1        0.0370
     25 C         138.2414  140.9866  160.4216 C.3     1  UNL1        0.0204
     26 C         138.4114  142.3663  159.8581 C.3     1  UNL1        0.0722
     27 N         139.6105  142.9887  160.5098 N.3     1  UNL1       -0.2723
     28 C         140.1816  141.9936  161.4760 C.3     1  UNL1        0.0738
     29 C         140.1447  144.3646  160.2422 C.3     1  UNL1        0.0768
     30 C         141.6240  144.6120  160.2635 C.3     1  UNL1        0.0437
     31 C         142.5346  143.7892  159.4011 C.ar    1  UNL1       -0.0208
     32 C         143.5285  142.8601  160.0325 C.ar    1  UNL1       -0.0043
     33 C         144.4391  142.0372  159.1700 C.ar    1  UNL1        0.0035
     34 C         144.3556  142.1435  157.6761 C.ar    1  UNL1        0.0714
     35 C         143.3617  143.0726  157.0446 C.ar    1  UNL1        0.0035
     36 C         142.4511  143.8955  157.9072 C.ar    1  UNL1       -0.0043
     37 C         145.2662  141.3206  156.8137 C.3     1  UNL1        0.4186
     38 F         146.1767  140.4978  155.9512 F       1  UNL1       -0.1659
     39 F         144.1414  140.3682  156.5349 F       1  UNL1       -0.1659
     40 F         146.3909  142.2731  157.0924 F       1  UNL1       -0.1659
     41 C         140.8865  142.8431  168.6433 C.2     1  UNL1        0.3388
     42 O         140.1283  143.9857  169.2511 O.2     1  UNL1       -0.2452
     43 C         143.1946  141.9689  169.4547 C.3     1  UNL1        0.2559
     44 O         142.3847  142.8839  168.5847 O.3     1  UNL1       -0.4415
@<TRIPOS>UNITY_ATOM_ATTR
16 1
charge 1
18 1
charge -1
@<TRIPOS>BOND
     1    43    44    1
     2    44    41    1
     3    41    42    2
     4    41     1    1
     5     1     2    2
     6     2     3    1
     7     2     4    1
     8     4     5    1
     9     5     6    1
    10     5     7    2
    11     7    19    1
    12    19    20    2
    13    19    21   am
    14    21    23    1
    15    24    23    1
    16    24    25    1
    17    25    26    1
    18    26    27    1
    19    27    29    1
    20    29    30    1
    21    30    31    1
    22    31    32   ar
    23    32    33   ar
    24    33    34   ar
    25    34    37    1
    26    37    38    1
    27    37    39    1
    28    37    40    1
    29    34    35   ar
    30    35    36   ar
    31    27    28    1
    32     7     8    1
    33     8    10    1
    34    10    11   ar
    35    11    12   ar
    36    12    13   ar
    37    13    14   ar
    38    14    16    1
    39    16    17    2
    40    16    18    1
    41    14    15   ar
    42     8     1    1
    43    15    10   ar
    44    28    24    1
    45    36    31   ar
    46     4     9    1
    47    21    22    1
@<TRIPOS>MOLECULE
*****
 44 47 0 0 0
SMALL
GASTEIGER

@<TRIPOS>ATOM
      1 C         140.1917  141.6436  168.1786 C.2     1  UNL1        0.0706
      2 C         139.6640  140.6005  169.1185 C.2     1  UNL1        0.0283
      3 C         139.9103  140.7260  170.5929 C.3     1  UNL1        0.0470
      4 N         138.8901  139.4320  168.5841 N.pl3   1  UNL1       -0.3193
      5 C         138.6439  139.3065  167.1099 C.2     1  UNL1        0.0264
      6 C         137.8700  138.1379  166.5755 C.3     1  UNL1        0.0470
      7 C         139.1715  140.3496  166.1699 C.2     1  UNL1        0.0485
      8 C         139.9454  141.5181  166.7043 C.3     1  UNL1        0.0795
      9 H         138.5438  138.7473  169.2011 H       1  UNL1        0.1516
     10 C         140.4731  142.5613  165.7643 C.ar    1  UNL1       -0.0078
     11 C         139.6002  143.7090  165.3512 C.ar    1  UNL1       -0.0032
     12 C         140.1277  144.7521  164.4112 C.ar    1  UNL1        0.0060
     13 C         141.5283  144.6475  163.8843 C.ar    1  UNL1        0.0752
     14 C         142.4012  143.4997  164.2973 C.ar    1  UNL1        0.2898
     15 C         141.8735  142.4566  165.2374 C.ar    1  UNL1        0.0716
     16 N         143.8016  143.3950  163.7704 N.pl3   1  UNL1        0.0809
     17 O         144.6933  142.2785  164.2270 O.2     1  UNL1        0.0415
     18 O         144.3105  144.4068  162.7870 O.co2   1  UNL1       -0.5760
     19 C         138.9253  140.2241  164.6955 C.2     1  UNL1        0.2434
     20 O         137.7681  140.9404  164.0648 O.2     1  UNL1       -0.2704
     21 N         139.8363  139.3824  163.8520 N.am    1  UNL1       -0.3010
     22 H         140.5958  138.9123  164.2660 H       1  UNL1        0.1497
     23 C         139.5901  139.2569  162.3777 C.3     1  UNL1        0.0911
     24 C         140.0181  140.3549  161.4497 C.3     1  UNL1        0.0370
     25 C         139.3386  140.7427  160.1699 C.3     1  UNL1        0.0204
     26 C         140.1013  141.8853  159.5678 C.3     1  UNL1        0.0722
     27 N         141.2523  142.2038  160.4755 N.3     1  UNL1       -0.2723
     28 C         141.2009  141.2579  161.6385 C.3     1  UNL1        0.0738
     29 C         142.2751  143.2793  160.2582 C.3     1  UNL1        0.0768
     30 C         142.8034  143.5445  158.8796 C.3     1  UNL1        0.0437
     31 C         142.0623  144.4662  157.9569 C.ar    1  UNL1       -0.0208
     32 C         142.4280  144.5259  156.5035 C.ar    1  UNL1       -0.0043
     33 C         141.6869  145.4476  155.5809 C.ar    1  UNL1        0.0035
     34 C         140.5800  146.3096  156.1117 C.ar    1  UNL1        0.0714
     35 C         140.2142  146.2499  157.5652 C.ar    1  UNL1        0.0035
     36 C         140.9554  145.3281  158.4879 C.ar    1  UNL1       -0.0043
     37 C         139.8389  147.2312  155.1891 C.3     1  UNL1        0.4186
     38 F         139.0978  148.1529  154.2664 F       1  UNL1       -0.1659
     39 F         140.7343  146.8193  154.0583 F       1  UNL1       -0.1659
     40 F         138.9435  147.6432  156.3198 F       1  UNL1       -0.1659
     41 C         140.9656  142.8122  168.7129 C.2     1  UNL1        0.3388
     42 O         140.2399  143.9964  169.2795 O.2     1  UNL1       -0.2452
     43 C         143.2373  142.3886  169.9002 C.3     1  UNL1        0.2559
     44 O         142.4651  142.7966  168.6806 O.3     1  UNL1       -0.4415
@<TRIPOS>UNITY_ATOM_ATTR
16 1
charge 1
18 1
charge -1
@<TRIPOS>BOND
     1    43    44    1
     2    44    41    1
     3    41    42    2
     4    41     1    1
     5     1     2    2
     6     2     3    1
     7     2     4    1
     8     4     5    1
     9     5     6    1
    10     5     7    2
    11     7    19    1
    12    19    20    2
    13    19    21   am
    14    21    23    1
    15    24    23    1
    16    24    25    1
    17    25    26    1
    18    26    27    1
    19    27    29    1
    20    29    30    1
    21    30    31    1
    22    31    32   ar
    23    32    33   ar
    24    33    34   ar
    25    34    37    1
    26    37    38    1
    27    37    39    1
    28    37    40    1
    29    34    35   ar
    30    35    36   ar
    31    27    28    1
    32     7     8    1
    33     8    10    1
    34    10    11   ar
    35    11    12   ar
    36    12    13   ar
    37    13    14   ar
    38    14    16    1
    39    16    17    2
    40    16    18    1
    41    14    15   ar
    42     8     1    1
    43    15    10   ar
    44    28    24    1
    45    36    31   ar
    46     4     9    1
    47    21    22    1
