@<TRIPOS>MOLECULE
*****
 22 22 0 0 0
SMALL
GASTEIGER

@<TRIPOS>ATOM
      1 C         137.3343  141.5882  162.9182 C.3     1  UNL1        0.1498
      2 C         137.8277  140.7480  164.0586 C.1     1  UNL1       -0.0730
      3 C         138.3211  139.9077  165.1990 C.1     1  UNL1       -0.0893
      4 C         138.8145  139.0675  166.3394 C.3     1  UNL1        0.0808
      5 C         138.8918  139.6481  167.7203 C.3     1  UNL1        0.0403
      6 C         140.1444  140.3363  168.1755 C.ar    1  UNL1       -0.0211
      7 C         140.0562  141.5964  168.9844 C.ar    1  UNL1       -0.0034
      8 C         141.3088  142.2847  169.4397 C.ar    1  UNL1        0.0111
      9 C         142.6496  141.7128  169.0860 C.ar    1  UNL1        0.0577
     10 CL        143.9023  142.4011  169.5413 Cl      1  UNL1       -0.0822
     11 C         142.7378  140.4528  168.2771 C.ar    1  UNL1        0.0111
     12 C         141.4852  139.7645  167.8219 C.ar    1  UNL1       -0.0034
     13 N         138.0495  142.8562  162.5565 N.3     1  UNL1       -0.2618
     14 C         139.0925  142.8477  161.4785 C.3     1  UNL1        0.0730
     15 C         140.2848  143.7520  161.5812 C.3     1  UNL1        0.0188
     16 C         137.7218  144.1326  163.2729 C.3     1  UNL1        0.0730
     17 C         138.1033  144.3035  164.7135 C.3     1  UNL1        0.0174
     18 C         139.5488  144.4143  165.0985 C.3     1  UNL1        0.0014
     19 C         140.2400  143.2579  165.7580 C.3     1  UNL1        0.0000
     20 C         140.9992  142.2655  164.9280 C.3     1  UNL1        0.0000
     21 C         143.4122  142.8913  165.6599 C.3     1  UNL1        0.0000
     22 C         142.4365  142.5202  164.5827 C.3     1  UNL1        0.0000
@<TRIPOS>BOND
     1    21    22    1
     2    22    20    1
     3    20    19    1
     4    19    18    1
     5    18    17    1
     6    17    16    1
     7    16    13    1
     8    13    14    1
     9    14    15    1
    10    13     1    1
    11     1     2    1
    12     2     3    3
    13     3     4    1
    14     4     5    1
    15     5     6    1
    16     6     7   ar
    17     7     8   ar
    18     8     9   ar
    19     9    10    1
    20     9    11   ar
    21    11    12   ar
    22    12     6   ar
@<TRIPOS>MOLECULE
*****
 22 22 0 0 0
SMALL
GASTEIGER

@<TRIPOS>ATOM
      1 C         140.7224  142.3915  166.2394 C.3     1  UNL1        0.1498
      2 C         139.8449  141.1772  166.3124 C.1     1  UNL1       -0.0730
      3 C         138.9673  139.9628  166.3854 C.1     1  UNL1       -0.0893
      4 C         138.0898  138.7485  166.4584 C.3     1  UNL1        0.0808
      5 C         138.4561  137.5114  165.6933 C.3     1  UNL1        0.0403
      6 C         139.3619  137.6072  164.5016 C.ar    1  UNL1       -0.0211
      7 C         140.8471  137.4922  164.6772 C.ar    1  UNL1       -0.0034
      8 C         141.7530  137.5880  163.4855 C.ar    1  UNL1        0.0111
      9 C         141.1736  137.7989  162.1181 C.ar    1  UNL1        0.0577
     10 CL        142.0794  137.8947  160.9263 Cl      1  UNL1       -0.0822
     11 C         139.6884  137.9140  161.9424 C.ar    1  UNL1        0.0111
     12 C         138.7826  137.8181  163.1342 C.ar    1  UNL1       -0.0034
     13 N         141.2611  142.8492  164.9163 N.3     1  UNL1       -0.2618
     14 C         141.9864  141.8831  164.0272 C.3     1  UNL1        0.0730
     15 C         141.3295  141.3751  162.7780 C.3     1  UNL1        0.0188
     16 C         141.0744  144.2728  164.4825 C.3     1  UNL1        0.0730
     17 C         139.6923  144.8362  164.3327 C.3     1  UNL1        0.0174
     18 C         138.9348  144.6350  163.0538 C.3     1  UNL1        0.0014
     19 C         137.6504  143.8603  163.0568 C.3     1  UNL1        0.0000
     20 C         137.5273  142.6153  163.8846 C.3     1  UNL1        0.0000
     21 C         137.8085  141.1302  161.7715 C.3     1  UNL1        0.0000
     22 C         137.4296  141.2764  163.2155 C.3     1  UNL1        0.0000
@<TRIPOS>BOND
     1    21    22    1
     2    22    20    1
     3    20    19    1
     4    19    18    1
     5    18    17    1
     6    17    16    1
     7    16    13    1
     8    13    14    1
     9    14    15    1
    10    13     1    1
    11     1     2    1
    12     2     3    3
    13     3     4    1
    14     4     5    1
    15     5     6    1
    16     6     7   ar
    17     7     8   ar
    18     8     9   ar
    19     9    10    1
    20     9    11   ar
    21    11    12   ar
    22    12     6   ar
@<TRIPOS>MOLECULE
*****
 22 22 0 0 0
SMALL
GASTEIGER

@<TRIPOS>ATOM
      1 C         137.8022  140.0768  162.2552 C.3     1  UNL1        0.1498
      2 C         137.7497  141.3771  163.0011 C.1     1  UNL1       -0.0730
      3 C         137.6971  142.6774  163.7470 C.1     1  UNL1       -0.0893
      4 C         137.6446  143.9777  164.4930 C.3     1  UNL1        0.0808
      5 C         138.8553  144.4693  165.2295 C.3     1  UNL1        0.0403
      6 C         140.2220  144.2675  164.6451 C.ar    1  UNL1       -0.0211
      7 C         140.6224  145.0048  163.4018 C.ar    1  UNL1       -0.0034
      8 C         141.9891  144.8030  162.8174 C.ar    1  UNL1        0.0111
      9 C         142.9553  143.8639  163.4764 C.ar    1  UNL1        0.0577
     10 CL        144.3220  143.6621  162.8920 Cl      1  UNL1       -0.0822
     11 C         142.5549  143.1265  164.7198 C.ar    1  UNL1        0.0111
     12 C         141.1883  143.3283  165.3041 C.ar    1  UNL1       -0.0034
     13 N         138.9698  139.1532  162.4392 N.3     1  UNL1       -0.2618
     14 C         140.3252  139.5476  161.9321 C.3     1  UNL1        0.0730
     15 C         141.2664  140.3066  162.8198 C.3     1  UNL1        0.0188
     16 C         138.7818  137.8352  163.1304 C.3     1  UNL1        0.0730
     17 C         139.3386  137.6242  164.5072 C.3     1  UNL1        0.0174
     18 C         138.5011  137.9386  165.7112 C.3     1  UNL1        0.0014
     19 C         138.1729  139.3637  166.0451 C.3     1  UNL1        0.0000
     20 C         139.2751  140.3660  166.2200 C.3     1  UNL1        0.0000
     21 C         141.7634  139.7089  166.5751 C.3     1  UNL1        0.0000
     22 C         140.4212  140.0675  167.1405 C.3     1  UNL1        0.0000
@<TRIPOS>BOND
     1    21    22    1
     2    22    20    1
     3    20    19    1
     4    19    18    1
     5    18    17    1
     6    17    16    1
     7    16    13    1
     8    13    14    1
     9    14    15    1
    10    13     1    1
    11     1     2    1
    12     2     3    3
    13     3     4    1
    14     4     5    1
    15     5     6    1
    16     6     7   ar
    17     7     8   ar
    18     8     9   ar
    19     9    10    1
    20     9    11   ar
    21    11    12   ar
    22    12     6   ar
@<TRIPOS>MOLECULE
*****
 22 22 0 0 0
SMALL
GASTEIGER

@<TRIPOS>ATOM
      1 C         137.8845  142.6150  163.8577 C.3     1  UNL1        0.1498
      2 C         137.9872  141.3210  164.6093 C.1     1  UNL1       -0.0730
      3 C         138.0899  140.0270  165.3610 C.1     1  UNL1       -0.0893
      4 C         138.1926  138.7329  166.1126 C.3     1  UNL1        0.0808
      5 C         138.7405  137.5127  165.4338 C.3     1  UNL1        0.0403
      6 C         139.6140  137.6566  164.2229 C.ar    1  UNL1       -0.0211
      7 C         141.1068  137.6442  164.3691 C.ar    1  UNL1       -0.0034
      8 C         141.9802  137.7881  163.1582 C.ar    1  UNL1        0.0111
      9 C         141.3609  137.9445  161.8010 C.ar    1  UNL1        0.0577
     10 CL        142.2344  138.0884  160.5901 Cl      1  UNL1       -0.0822
     11 C         139.8682  137.9569  161.6548 C.ar    1  UNL1        0.0111
     12 C         138.9947  137.8130  162.8657 C.ar    1  UNL1       -0.0034
     13 N         139.1229  143.4029  163.5481 N.3     1  UNL1       -0.2618
     14 C         139.4301  144.6514  164.3206 C.3     1  UNL1        0.0730
     15 C         138.6249  144.9975  165.5379 C.3     1  UNL1        0.0188
     16 C         140.0540  142.9421  162.4662 C.3     1  UNL1        0.0730
     17 C         140.8299  141.6696  162.6359 C.3     1  UNL1        0.0174
     18 C         141.9318  141.5927  163.6506 C.3     1  UNL1        0.0014
     19 C         141.6258  141.1821  165.0605 C.3     1  UNL1        0.0000
     20 C         141.6728  142.1968  166.1642 C.3     1  UNL1        0.0000
     21 C         140.2638  141.2493  168.1306 C.3     1  UNL1        0.0000
     22 C         140.5203  142.3238  167.1159 C.3     1  UNL1        0.0000
@<TRIPOS>BOND
     1    21    22    1
     2    22    20    1
     3    20    19    1
     4    19    18    1
     5    18    17    1
     6    17    16    1
     7    16    13    1
     8    13    14    1
     9    14    15    1
    10    13     1    1
    11     1     2    1
    12     2     3    3
    13     3     4    1
    14     4     5    1
    15     5     6    1
    16     6     7   ar
    17     7     8   ar
    18     8     9   ar
    19     9    10    1
    20     9    11   ar
    21    11    12   ar
    22    12     6   ar
@<TRIPOS>MOLECULE
*****
 22 22 0 0 0
SMALL
GASTEIGER

@<TRIPOS>ATOM
      1 C         140.2037  139.3177  163.7804 C.3     1  UNL1        0.1498
      2 C         141.2072  139.1208  164.8777 C.1     1  UNL1       -0.0730
      3 C         142.2107  138.9239  165.9750 C.1     1  UNL1       -0.0893
      4 C         143.2143  138.7270  167.0723 C.3     1  UNL1        0.0808
      5 C         142.8319  139.0014  168.4965 C.3     1  UNL1        0.0403
      6 C         142.2155  140.3177  168.8674 C.ar    1  UNL1       -0.0211
      7 C         140.7233  140.4680  168.8873 C.ar    1  UNL1       -0.0034
      8 C         140.1069  141.7843  169.2581 C.ar    1  UNL1        0.0111
      9 C         140.9829  142.9503  169.6090 C.ar    1  UNL1        0.0577
     10 CL        140.3666  144.2666  169.9798 Cl      1  UNL1       -0.0822
     11 C         142.4752  142.7999  169.5891 C.ar    1  UNL1        0.0111
     12 C         143.0915  141.4836  169.2183 C.ar    1  UNL1       -0.0034
     13 N         138.9145  140.0310  164.0621 N.3     1  UNL1       -0.2618
     14 C         138.3391  140.0211  165.4474 C.3     1  UNL1        0.0730
     15 C         138.0455  138.7173  166.1282 C.3     1  UNL1        0.0188
     16 C         138.2008  140.7542  162.9587 C.3     1  UNL1        0.0730
     17 C         137.2512  141.8690  163.2839 C.3     1  UNL1        0.0174
     18 C         137.7657  143.2682  163.4491 C.3     1  UNL1        0.0014
     19 C         138.4934  143.6567  164.7019 C.3     1  UNL1        0.0000
     20 C         139.9915  143.5966  164.7484 C.3     1  UNL1        0.0000
     21 C         142.1602  142.5977  165.7726 C.3     1  UNL1        0.0000
     22 C         140.6777  142.8183  165.8316 C.3     1  UNL1        0.0000
@<TRIPOS>BOND
     1    21    22    1
     2    22    20    1
     3    20    19    1
     4    19    18    1
     5    18    17    1
     6    17    16    1
     7    16    13    1
     8    13    14    1
     9    14    15    1
    10    13     1    1
    11     1     2    1
    12     2     3    3
    13     3     4    1
    14     4     5    1
    15     5     6    1
    16     6     7   ar
    17     7     8   ar
    18     8     9   ar
    19     9    10    1
    20     9    11   ar
    21    11    12   ar
    22    12     6   ar
@<TRIPOS>MOLECULE
*****
 22 22 0 0 0
SMALL
GASTEIGER

@<TRIPOS>ATOM
      1 C         143.3041  144.9364  163.4833 C.3     1  UNL1        0.1498
      2 C         141.8442  144.9024  163.8261 C.1     1  UNL1       -0.0730
      3 C         140.3842  144.8685  164.1689 C.1     1  UNL1       -0.0893
      4 C         138.9243  144.8345  164.5117 C.3     1  UNL1        0.0808
      5 C         138.3218  143.5954  165.1046 C.3     1  UNL1        0.0403
      6 C         138.1804  142.3570  164.2701 C.ar    1  UNL1       -0.0211
      7 C         138.3937  141.0073  164.8889 C.ar    1  UNL1       -0.0034
      8 C         138.2523  139.7689  164.0544 C.ar    1  UNL1        0.0111
      9 C         137.8976  139.8801  162.6012 C.ar    1  UNL1        0.0577
     10 CL        137.7561  138.6417  161.7668 Cl      1  UNL1       -0.0822
     11 C         137.6842  141.2298  161.9825 C.ar    1  UNL1        0.0111
     12 C         137.8256  142.4682  162.8170 C.ar    1  UNL1       -0.0034
     13 N         144.2000  143.8097  163.9052 N.3     1  UNL1       -0.2618
     14 C         144.6733  142.8087  162.8934 C.3     1  UNL1        0.0730
     15 C         145.6997  141.7838  163.2756 C.3     1  UNL1        0.0188
     16 C         144.6225  143.6841  165.3390 C.3     1  UNL1        0.0730
     17 C         143.7824  142.8994  166.3025 C.3     1  UNL1        0.0174
     18 C         142.7195  141.9737  165.7894 C.3     1  UNL1        0.0014
     19 C         141.3813  141.9206  166.4650 C.3     1  UNL1        0.0000
     20 C         141.2756  142.1693  167.9405 C.3     1  UNL1        0.0000
     21 C         140.4710  143.7317  169.8539 C.3     1  UNL1        0.0000
     22 C         140.3156  143.1976  168.4609 C.3     1  UNL1        0.0000
@<TRIPOS>BOND
     1    21    22    1
     2    22    20    1
     3    20    19    1
     4    19    18    1
     5    18    17    1
     6    17    16    1
     7    16    13    1
     8    13    14    1
     9    14    15    1
    10    13     1    1
    11     1     2    1
    12     2     3    3
    13     3     4    1
    14     4     5    1
    15     5     6    1
    16     6     7   ar
    17     7     8   ar
    18     8     9   ar
    19     9    10    1
    20     9    11   ar
    21    11    12   ar
    22    12     6   ar
@<TRIPOS>MOLECULE
*****
 22 22 0 0 0
SMALL
GASTEIGER

@<TRIPOS>ATOM
      1 C         139.7112  145.2131  162.8497 C.3     1  UNL1        0.1498
      2 C         141.1526  145.1123  163.2524 C.1     1  UNL1       -0.0730
      3 C         142.5940  145.0116  163.6551 C.1     1  UNL1       -0.0893
      4 C         144.0354  144.9108  164.0578 C.3     1  UNL1        0.0808
      5 C         144.4266  144.0789  165.2431 C.3     1  UNL1        0.0403
      6 C         143.9711  142.6532  165.3419 C.ar    1  UNL1       -0.0211
      7 C         144.5356  141.6194  164.4131 C.ar    1  UNL1       -0.0034
      8 C         144.0801  140.1936  164.5120 C.ar    1  UNL1        0.0111
      9 C         143.0601  139.8017  165.5396 C.ar    1  UNL1        0.0577
     10 CL        142.6046  138.3759  165.6384 Cl      1  UNL1       -0.0822
     11 C         142.4957  140.8354  166.4683 C.ar    1  UNL1        0.0111
     12 C         142.9512  142.2612  166.3695 C.ar    1  UNL1       -0.0034
     13 N         138.6560  144.5199  163.6597 N.3     1  UNL1       -0.2618
     14 C         138.6346  144.6729  165.1517 C.3     1  UNL1        0.0730
     15 C         139.4649  143.7658  166.0106 C.3     1  UNL1        0.0188
     16 C         137.6222  143.6737  162.9776 C.3     1  UNL1        0.0730
     17 C         137.7037  142.1781  163.0600 C.3     1  UNL1        0.0174
     18 C         138.9764  141.4749  162.6916 C.3     1  UNL1        0.0014
     19 C         139.8529  140.8995  163.7642 C.3     1  UNL1        0.0000
     20 C         139.3836  139.7204  164.5640 C.3     1  UNL1        0.0000
     21 C         137.9882  138.8240  166.5638 C.3     1  UNL1        0.0000
     22 C         138.7714  139.9280  165.9176 C.3     1  UNL1        0.0000
@<TRIPOS>BOND
     1    21    22    1
     2    22    20    1
     3    20    19    1
     4    19    18    1
     5    18    17    1
     6    17    16    1
     7    16    13    1
     8    13    14    1
     9    14    15    1
    10    13     1    1
    11     1     2    1
    12     2     3    3
    13     3     4    1
    14     4     5    1
    15     5     6    1
    16     6     7   ar
    17     7     8   ar
    18     8     9   ar
    19     9    10    1
    20     9    11   ar
    21    11    12   ar
    22    12     6   ar
@<TRIPOS>MOLECULE
*****
 22 22 0 0 0
SMALL
GASTEIGER

@<TRIPOS>ATOM
      1 C         137.6709  142.6139  162.9584 C.3     1  UNL1        0.1498
      2 C         137.8512  141.4832  163.9274 C.1     1  UNL1       -0.0730
      3 C         138.0316  140.3525  164.8964 C.1     1  UNL1       -0.0893
      4 C         138.2119  139.2218  165.8654 C.3     1  UNL1        0.0808
      5 C         138.8636  137.9471  165.4177 C.3     1  UNL1        0.0403
      6 C         140.0826  137.9943  164.5449 C.ar    1  UNL1       -0.0211
      7 C         139.9581  137.7568  163.0691 C.ar    1  UNL1       -0.0034
      8 C         141.1771  137.8040  162.1963 C.ar    1  UNL1        0.0111
      9 C         142.5207  138.0886  162.7994 C.ar    1  UNL1        0.0577
     10 CL        143.7397  138.1358  161.9266 Cl      1  UNL1       -0.0822
     11 C         142.6452  138.3261  164.2752 C.ar    1  UNL1        0.0111
     12 C         141.4262  138.2789  165.1479 C.ar    1  UNL1       -0.0034
     13 N         138.8121  143.5438  162.6701 N.3     1  UNL1       -0.2618
     14 C         138.9592  144.8155  163.4517 C.3     1  UNL1        0.0730
     15 C         138.9620  144.7782  164.9512 C.3     1  UNL1        0.0188
     16 C         139.8061  143.2019  161.6001 C.3     1  UNL1        0.0730
     17 C         141.1516  142.6540  161.9737 C.3     1  UNL1        0.0174
     18 C         141.2590  141.5603  162.9946 C.3     1  UNL1        0.0014
     19 C         141.5896  141.8940  164.4191 C.3     1  UNL1        0.0000
     20 C         142.3101  143.1692  164.7430 C.3     1  UNL1        0.0000
     21 C         144.5940  141.9522  164.5134 C.3     1  UNL1        0.0000
     22 C         143.8034  143.1718  164.8844 C.3     1  UNL1        0.0000
@<TRIPOS>BOND
     1    21    22    1
     2    22    20    1
     3    20    19    1
     4    19    18    1
     5    18    17    1
     6    17    16    1
     7    16    13    1
     8    13    14    1
     9    14    15    1
    10    13     1    1
    11     1     2    1
    12     2     3    3
    13     3     4    1
    14     4     5    1
    15     5     6    1
    16     6     7   ar
    17     7     8   ar
    18     8     9   ar
    19     9    10    1
    20     9    11   ar
    21    11    12   ar
    22    12     6   ar
@<TRIPOS>MOLECULE
*****
 22 22 0 0 0
SMALL
GASTEIGER

@<TRIPOS>ATOM
      1 C         137.2661  141.5537  163.2842 C.3     1  UNL1        0.1498
      2 C         137.9975  140.2461  163.2122 C.1     1  UNL1       -0.0730
      3 C         138.7290  138.9385  163.1403 C.1     1  UNL1       -0.0893
      4 C         139.4604  137.6309  163.0683 C.3     1  UNL1        0.0808
      5 C         140.5373  137.3182  164.0645 C.3     1  UNL1        0.0403
      6 C         141.7985  138.1300  164.0853 C.ar    1  UNL1       -0.0211
      7 C         142.6376  138.2439  162.8472 C.ar    1  UNL1       -0.0034
      8 C         143.8987  139.0557  162.8680 C.ar    1  UNL1        0.0111
      9 C         144.3208  139.7536  164.1268 C.ar    1  UNL1        0.0577
     10 CL        145.5819  140.5654  164.1476 Cl      1  UNL1       -0.0822
     11 C         143.4817  139.6397  165.3649 C.ar    1  UNL1        0.0111
     12 C         142.2205  138.8279  165.3441 C.ar    1  UNL1       -0.0034
     13 N         137.6959  142.7021  162.4200 N.3     1  UNL1       -0.2618
     14 C         138.0548  142.4659  160.9829 C.3     1  UNL1        0.0730
     15 C         139.3234  143.0379  160.4229 C.3     1  UNL1        0.0188
     16 C         137.7669  144.0865  162.9931 C.3     1  UNL1        0.0730
     17 C         137.9386  144.2786  164.4708 C.3     1  UNL1        0.0174
     18 C         139.3117  144.2642  165.0744 C.3     1  UNL1        0.0014
     19 C         139.7572  143.0915  165.8967 C.3     1  UNL1        0.0000
     20 C         140.9201  142.2580  165.4461 C.3     1  UNL1        0.0000
     21 C         141.3674  141.7131  162.9456 C.3     1  UNL1        0.0000
     22 C         141.6104  142.5711  164.1517 C.3     1  UNL1        0.0000
@<TRIPOS>BOND
     1    21    22    1
     2    22    20    1
     3    20    19    1
     4    19    18    1
     5    18    17    1
     6    17    16    1
     7    16    13    1
     8    13    14    1
     9    14    15    1
    10    13     1    1
    11     1     2    1
    12     2     3    3
    13     3     4    1
    14     4     5    1
    15     5     6    1
    16     6     7   ar
    17     7     8   ar
    18     8     9   ar
    19     9    10    1
    20     9    11   ar
    21    11    12   ar
    22    12     6   ar
