@<TRIPOS>MOLECULE
*****
 28 31 0 0 0
SMALL
GASTEIGER

@<TRIPOS>ATOM
      1 C         141.6192  142.3020  165.8509 C.3     1  UNL1        0.1686
      2 C         140.5380  143.1734  165.2838 C.3     1  UNL1        0.0595
      3 C         140.8900  144.2944  164.3514 C.3     1  UNL1        0.0614
      4 C         141.6733  145.2496  163.5005 C.3     1  UNL1        0.0175
      5 C         143.1250  144.8906  163.6170 C.3     1  UNL1        0.0175
      6 C         143.2389  143.7136  164.5398 C.3     1  UNL1        0.0614
      7 C         143.0525  142.5517  165.4855 C.3     1  UNL1        0.0595
      8 N         141.8576  143.3451  164.9937 N.3     1  UNL1       -0.2713
      9 O         141.2673  141.1810  166.7834 O.3     1  UNL1       -0.4790
     10 C         139.6040  138.3188  164.5945 C.ar    1  UNL1        0.0584
     11 C         138.4282  137.9537  165.4514 C.ar    1  UNL1        0.0343
     12 C         138.1988  138.6644  166.7522 C.ar    1  UNL1        0.1433
     13 F         137.0230  138.2992  167.6092 F       1  UNL1       -0.2041
     14 C         139.1452  139.7401  167.1962 C.ar    1  UNL1        0.0665
     15 C         140.3209  140.1052  166.3394 C.ar    1  UNL1        0.1408
     16 C         140.5504  139.3946  165.0385 C.ar    1  UNL1        0.0415
     17 N         138.7755  137.6299  162.2304 N.am    1  UNL1       -0.3253
     18 C         139.8334  137.6082  163.2936 C.2     1  UNL1        0.2429
     19 O         141.1208  136.8758  163.0559 O.2     1  UNL1       -0.2704
     20 H         138.9261  137.1635  161.3766 H       1  UNL1        0.1453
     21 H         137.9306  138.1106  162.3864 H       1  UNL1        0.1453
     22 C         141.5056  142.2241  165.9261 C.3     1  UNL1        0.0991
     23 C         141.7149  142.3831  167.4029 C.ar    1  UNL1       -0.0061
     24 C         142.9986  141.9285  168.0317 C.ar    1  UNL1       -0.0029
     25 C         143.2080  142.0875  169.5084 C.ar    1  UNL1       -0.0003
     26 C         142.1337  142.7012  170.3564 C.ar    1  UNL1       -0.0000
     27 C         140.8499  143.1559  169.7277 C.ar    1  UNL1       -0.0003
     28 C         140.6406  142.9968  168.2509 C.ar    1  UNL1       -0.0029
@<TRIPOS>BOND
     1    17    18   am
     2    18    19    2
     3    18    10    1
     4    10    11   ar
     5    11    12   ar
     6    12    13    1
     7    12    14   ar
     8    14    15   ar
     9    15     9    1
    10     1     9    1
    11     1     2    1
    12     3     2    1
    13     3     4    1
    14     4     5    1
    15     6     5    1
    16     6     7    1
    17     6     8    1
    18     8    22    1
    19    22    23    1
    20    23    24   ar
    21    24    25   ar
    22    25    26   ar
    23    26    27   ar
    24    27    28   ar
    25    15    16   ar
    26    16    10   ar
    27     7     1    1
    28    28    23   ar
    29     8     3    1
    30    17    20    1
    31    17    21    1
@<TRIPOS>MOLECULE
*****
 28 31 0 0 0
SMALL
GASTEIGER

@<TRIPOS>ATOM
      1 C         140.7775  142.0179  167.1987 C.3     1  UNL1        0.1686
      2 C         142.1007  141.3165  167.2819 C.3     1  UNL1        0.0595
      3 C         143.0113  141.5686  168.4469 C.3     1  UNL1        0.0614
      4 C         143.5676  142.1036  169.7331 C.3     1  UNL1        0.0175
      5 C         142.5654  143.0591  170.3097 C.3     1  UNL1        0.0175
      6 C         141.3896  143.1147  169.3798 C.3     1  UNL1        0.0614
      7 C         140.3648  142.9715  168.2806 C.3     1  UNL1        0.0595
      8 N         141.6652  142.1934  168.2286 N.3     1  UNL1       -0.2713
      9 O         139.8668  141.7658  166.0336 O.3     1  UNL1       -0.4790
     10 C         139.4189  138.3231  164.1109 C.ar    1  UNL1        0.0584
     11 C         138.5491  137.5714  165.0744 C.ar    1  UNL1        0.0343
     12 C         138.1185  138.2179  166.3576 C.ar    1  UNL1        0.1433
     13 F         137.2485  137.4661  167.3211 F       1  UNL1       -0.2041
     14 C         138.5577  139.6160  166.6773 C.ar    1  UNL1        0.0665
     15 C         139.4276  140.3677  165.7139 C.ar    1  UNL1        0.1408
     16 C         139.8582  139.7213  164.4307 C.ar    1  UNL1        0.0415
     17 N         138.9521  137.7227  161.6266 N.am    1  UNL1       -0.3253
     18 C         139.8495  137.6767  162.8277 C.2     1  UNL1        0.2429
     19 O         141.1776  136.9841  162.7455 O.2     1  UNL1       -0.2704
     20 H         139.2347  137.2984  160.7844 H       1  UNL1        0.1453
     21 H         138.0805  138.1773  161.6806 H       1  UNL1        0.1453
     22 C         140.7547  141.9413  167.0635 C.3     1  UNL1        0.0991
     23 C         140.6316  142.9637  165.9728 C.ar    1  UNL1       -0.0061
     24 C         141.7692  143.1850  165.0205 C.ar    1  UNL1       -0.0029
     25 C         141.6462  144.2073  163.9298 C.ar    1  UNL1       -0.0003
     26 C         140.3855  145.0083  163.7914 C.ar    1  UNL1       -0.0000
     27 C         139.2479  144.7870  164.7437 C.ar    1  UNL1       -0.0003
     28 C         139.3710  143.7646  165.8344 C.ar    1  UNL1       -0.0029
@<TRIPOS>BOND
     1    17    18   am
     2    18    19    2
     3    18    10    1
     4    10    11   ar
     5    11    12   ar
     6    12    13    1
     7    12    14   ar
     8    14    15   ar
     9    15     9    1
    10     1     9    1
    11     1     2    1
    12     3     2    1
    13     3     4    1
    14     4     5    1
    15     6     5    1
    16     6     7    1
    17     6     8    1
    18     8    22    1
    19    22    23    1
    20    23    24   ar
    21    24    25   ar
    22    25    26   ar
    23    26    27   ar
    24    27    28   ar
    25    15    16   ar
    26    16    10   ar
    27     7     1    1
    28    28    23   ar
    29     8     3    1
    30    17    20    1
    31    17    21    1
@<TRIPOS>MOLECULE
*****
 28 31 0 0 0
SMALL
GASTEIGER

@<TRIPOS>ATOM
      1 C         142.2009  141.3642  166.7472 C.3     1  UNL1        0.1686
      2 C         141.6287  140.0280  167.1176 C.3     1  UNL1        0.0595
      3 C         141.8203  139.4884  168.5040 C.3     1  UNL1        0.0614
      4 C         142.2408  139.3557  169.9377 C.3     1  UNL1        0.0175
      5 C         143.0121  140.5871  170.3104 C.3     1  UNL1        0.0175
      6 C         143.0683  141.4808  169.1070 C.3     1  UNL1        0.0614
      7 C         142.9647  142.1608  167.7632 C.3     1  UNL1        0.0595
      8 N         142.3317  140.8018  167.9906 N.3     1  UNL1       -0.2713
      9 O         142.0094  141.9039  165.3607 O.3     1  UNL1       -0.4790
     10 C         138.6178  142.5969  163.4200 C.ar    1  UNL1        0.0584
     11 C         138.0821  143.7651  164.1935 C.ar    1  UNL1        0.0343
     12 C         138.8556  144.3128  165.3562 C.ar    1  UNL1        0.1433
     13 F         138.3198  145.4811  166.1298 F       1  UNL1       -0.2041
     14 C         140.1646  143.6925  165.7452 C.ar    1  UNL1        0.0665
     15 C         140.7003  142.5243  164.9716 C.ar    1  UNL1        0.1408
     16 C         139.9269  141.9765  163.8090 C.ar    1  UNL1        0.0415
     17 N         137.2548  140.6718  162.3308 N.am    1  UNL1       -0.3253
     18 C         137.8443  142.0491  162.2573 C.2     1  UNL1        0.2429
     19 O         137.6604  142.8788  161.0212 O.2     1  UNL1       -0.2704
     20 H         136.7472  140.3123  161.5677 H       1  UNL1        0.1453
     21 H         137.3756  140.1273  163.1420 H       1  UNL1        0.1453
     22 C         142.1401  141.3414  166.6042 C.3     1  UNL1        0.0991
     23 C         143.2958  141.3820  165.6488 C.ar    1  UNL1       -0.0061
     24 C         143.7809  140.1174  165.0042 C.ar    1  UNL1       -0.0029
     25 C         144.9365  140.1580  164.0489 C.ar    1  UNL1       -0.0003
     26 C         145.6072  141.4632  163.7381 C.ar    1  UNL1       -0.0000
     27 C         145.1222  142.7279  164.3827 C.ar    1  UNL1       -0.0003
     28 C         143.9664  142.6872  165.3381 C.ar    1  UNL1       -0.0029
@<TRIPOS>BOND
     1    17    18   am
     2    18    19    2
     3    18    10    1
     4    10    11   ar
     5    11    12   ar
     6    12    13    1
     7    12    14   ar
     8    14    15   ar
     9    15     9    1
    10     1     9    1
    11     1     2    1
    12     3     2    1
    13     3     4    1
    14     4     5    1
    15     6     5    1
    16     6     7    1
    17     6     8    1
    18     8    22    1
    19    22    23    1
    20    23    24   ar
    21    24    25   ar
    22    25    26   ar
    23    26    27   ar
    24    27    28   ar
    25    15    16   ar
    26    16    10   ar
    27     7     1    1
    28    28    23   ar
    29     8     3    1
    30    17    20    1
    31    17    21    1
@<TRIPOS>MOLECULE
*****
 28 31 0 0 0
SMALL
GASTEIGER

@<TRIPOS>ATOM
      1 C         140.4622  141.6624  166.5431 C.3     1  UNL1        0.1686
      2 C         139.8817  140.3438  166.9605 C.3     1  UNL1        0.0595
      3 C         139.5289  140.1010  168.3980 C.3     1  UNL1        0.0614
      4 C         139.3375  140.2972  169.8728 C.3     1  UNL1        0.0175
      5 C         139.8041  141.6796  170.2208 C.3     1  UNL1        0.0175
      6 C         140.2839  142.3378  168.9612 C.3     1  UNL1        0.0614
      7 C         140.6899  142.7383  167.5634 C.3     1  UNL1        0.0595
      8 N         140.1138  141.3621  167.8346 N.3     1  UNL1       -0.2713
      9 O         140.8150  141.9053  165.1055 O.3     1  UNL1       -0.4790
     10 C         143.1603  139.3732  163.1465 C.ar    1  UNL1        0.0584
     11 C         144.5004  140.0177  163.3435 C.ar    1  UNL1        0.0343
     12 C         144.6120  141.2914  164.1279 C.ar    1  UNL1        0.1433
     13 F         145.9522  141.9359  164.3249 F       1  UNL1       -0.2041
     14 C         143.3836  141.9206  164.7152 C.ar    1  UNL1        0.0665
     15 C         142.0435  141.2761  164.5182 C.ar    1  UNL1        0.1408
     16 C         141.9318  140.0025  163.7339 C.ar    1  UNL1        0.0415
     17 N         141.8212  137.2466  162.4875 N.am    1  UNL1       -0.3253
     18 C         143.0487  138.0995  162.3621 C.2     1  UNL1        0.2429
     19 O         144.1647  137.6787  161.4523 O.2     1  UNL1       -0.2704
     20 H         141.7479  136.4106  161.9727 H       1  UNL1        0.1453
     21 H         141.0887  137.5228  163.0846 H       1  UNL1        0.1453
     22 C         140.4666  141.6050  166.3971 C.3     1  UNL1        0.0991
     23 C         139.5698  142.4443  165.5361 C.ar    1  UNL1       -0.0061
     24 C         139.7805  143.9273  165.4557 C.ar    1  UNL1       -0.0029
     25 C         138.8837  144.7666  164.5948 C.ar    1  UNL1       -0.0003
     26 C         137.7762  144.1231  163.8143 C.ar    1  UNL1       -0.0000
     27 C         137.5654  142.6401  163.8947 C.ar    1  UNL1       -0.0003
     28 C         138.4623  141.8008  164.7557 C.ar    1  UNL1       -0.0029
@<TRIPOS>BOND
     1    17    18   am
     2    18    19    2
     3    18    10    1
     4    10    11   ar
     5    11    12   ar
     6    12    13    1
     7    12    14   ar
     8    14    15   ar
     9    15     9    1
    10     1     9    1
    11     1     2    1
    12     3     2    1
    13     3     4    1
    14     4     5    1
    15     6     5    1
    16     6     7    1
    17     6     8    1
    18     8    22    1
    19    22    23    1
    20    23    24   ar
    21    24    25   ar
    22    25    26   ar
    23    26    27   ar
    24    27    28   ar
    25    15    16   ar
    26    16    10   ar
    27     7     1    1
    28    28    23   ar
    29     8     3    1
    30    17    20    1
    31    17    21    1
@<TRIPOS>MOLECULE
*****
 28 31 0 0 0
SMALL
GASTEIGER

@<TRIPOS>ATOM
      1 C         140.3247  141.4449  166.6026 C.3     1  UNL1        0.1686
      2 C         139.6431  140.2232  167.1438 C.3     1  UNL1        0.0595
      3 C         139.3502  140.1157  168.6109 C.3     1  UNL1        0.0614
      4 C         139.2626  140.4302  170.0750 C.3     1  UNL1        0.0175
      5 C         139.8805  141.7788  170.2971 C.3     1  UNL1        0.0175
      6 C         140.3500  142.2978  168.9704 C.3     1  UNL1        0.0614
      7 C         140.7134  142.5591  167.5286 C.3     1  UNL1        0.0595
      8 N         140.0223  141.2700  167.9283 N.3     1  UNL1       -0.2713
      9 O         140.6177  141.5524  165.1353 O.3     1  UNL1       -0.4790
     10 C         144.0038  142.2632  163.1916 C.ar    1  UNL1        0.0584
     11 C         144.8399  141.1034  163.6452 C.ar    1  UNL1        0.0343
     12 C         144.2686  140.0933  164.5956 C.ar    1  UNL1        0.1433
     13 F         145.1047  138.9334  165.0492 F       1  UNL1       -0.2041
     14 C         142.8612  140.2429  165.0923 C.ar    1  UNL1        0.0665
     15 C         142.0251  141.4027  164.6386 C.ar    1  UNL1        0.1408
     16 C         142.5964  142.4128  163.6883 C.ar    1  UNL1        0.0415
     17 N         145.3408  142.8183  161.0341 N.am    1  UNL1       -0.3253
     18 C         144.5752  143.2733  162.2412 C.2     1  UNL1        0.2429
     19 O         144.3810  144.7384  162.4979 O.2     1  UNL1       -0.2704
     20 H         145.7158  143.4813  160.4104 H       1  UNL1        0.1453
     21 H         145.4682  141.8567  160.8656 H       1  UNL1        0.1453
     22 C         140.3152  141.3775  166.4611 C.3     1  UNL1        0.0991
     23 C         139.4605  142.2470  165.5874 C.ar    1  UNL1       -0.0061
     24 C         138.4232  141.6279  164.6982 C.ar    1  UNL1       -0.0029
     25 C         137.5686  142.4974  163.8246 C.ar    1  UNL1       -0.0003
     26 C         137.7512  143.9861  163.8399 C.ar    1  UNL1       -0.0000
     27 C         138.7886  144.6054  164.7291 C.ar    1  UNL1       -0.0003
     28 C         139.6432  143.7357  165.6028 C.ar    1  UNL1       -0.0029
@<TRIPOS>BOND
     1    17    18   am
     2    18    19    2
     3    18    10    1
     4    10    11   ar
     5    11    12   ar
     6    12    13    1
     7    12    14   ar
     8    14    15   ar
     9    15     9    1
    10     1     9    1
    11     1     2    1
    12     3     2    1
    13     3     4    1
    14     4     5    1
    15     6     5    1
    16     6     7    1
    17     6     8    1
    18     8    22    1
    19    22    23    1
    20    23    24   ar
    21    24    25   ar
    22    25    26   ar
    23    26    27   ar
    24    27    28   ar
    25    15    16   ar
    26    16    10   ar
    27     7     1    1
    28    28    23   ar
    29     8     3    1
    30    17    20    1
    31    17    21    1
@<TRIPOS>MOLECULE
*****
 28 31 0 0 0
SMALL
GASTEIGER

@<TRIPOS>ATOM
      1 C         141.0096  140.3488  166.6188 C.3     1  UNL1        0.1686
      2 C         139.9347  140.3898  167.6641 C.3     1  UNL1        0.0595
      3 C         140.2578  140.0391  169.0863 C.3     1  UNL1        0.0614
      4 C         141.0062  139.6284  170.3196 C.3     1  UNL1        0.0175
      5 C         142.4340  139.3786  169.9337 C.3     1  UNL1        0.0175
      6 C         142.5680  139.6349  168.4618 C.3     1  UNL1        0.0614
      7 C         142.4077  139.9571  166.9957 C.3     1  UNL1        0.0595
      8 N         141.2230  140.0431  167.9381 N.3     1  UNL1       -0.2713
      9 O         140.6866  140.6995  165.1965 O.3     1  UNL1       -0.4790
     10 C         141.5146  144.0987  163.3232 C.ar    1  UNL1        0.0584
     11 C         140.4932  145.0135  163.9312 C.ar    1  UNL1        0.0343
     12 C         139.5363  144.4904  164.9610 C.ar    1  UNL1        0.1433
     13 F         138.5148  145.4054  165.5691 F       1  UNL1       -0.2041
     14 C         139.6007  143.0524  165.3828 C.ar    1  UNL1        0.0665
     15 C         140.6221  142.1375  164.7747 C.ar    1  UNL1        0.1408
     16 C         141.5790  142.6606  163.7449 C.ar    1  UNL1        0.0415
     17 N         141.9701  145.0182  160.9363 N.am    1  UNL1       -0.3253
     18 C         142.4715  144.6218  162.2933 C.2     1  UNL1        0.2429
     19 O         143.9300  144.7486  162.6205 O.2     1  UNL1       -0.2704
     20 H         142.5982  145.3616  160.2604 H       1  UNL1        0.1453
     21 H         141.0129  144.9350  160.7216 H       1  UNL1        0.1453
     22 C         140.8999  140.3938  166.5159 C.3     1  UNL1        0.0991
     23 C         140.8790  139.3231  165.4656 C.ar    1  UNL1       -0.0061
     24 C         139.6163  138.5586  165.1990 C.ar    1  UNL1       -0.0029
     25 C         139.5954  137.4879  164.1487 C.ar    1  UNL1       -0.0003
     26 C         140.8372  137.1818  163.3650 C.ar    1  UNL1       -0.0000
     27 C         142.0999  137.9463  163.6316 C.ar    1  UNL1       -0.0003
     28 C         142.1207  139.0170  164.6819 C.ar    1  UNL1       -0.0029
@<TRIPOS>BOND
     1    17    18   am
     2    18    19    2
     3    18    10    1
     4    10    11   ar
     5    11    12   ar
     6    12    13    1
     7    12    14   ar
     8    14    15   ar
     9    15     9    1
    10     1     9    1
    11     1     2    1
    12     3     2    1
    13     3     4    1
    14     4     5    1
    15     6     5    1
    16     6     7    1
    17     6     8    1
    18     8    22    1
    19    22    23    1
    20    23    24   ar
    21    24    25   ar
    22    25    26   ar
    23    26    27   ar
    24    27    28   ar
    25    15    16   ar
    26    16    10   ar
    27     7     1    1
    28    28    23   ar
    29     8     3    1
    30    17    20    1
    31    17    21    1
@<TRIPOS>MOLECULE
*****
 28 31 0 0 0
SMALL
GASTEIGER

@<TRIPOS>ATOM
      1 C         141.1838  140.4694  166.3607 C.3     1  UNL1        0.1686
      2 C         142.5015  140.0984  166.9739 C.3     1  UNL1        0.0595
      3 C         142.5843  139.7789  168.4371 C.3     1  UNL1        0.0614
      4 C         142.2077  139.5503  169.8710 C.3     1  UNL1        0.0175
      5 C         140.7340  139.7942  170.0077 C.3     1  UNL1        0.0175
      6 C         140.1998  140.1735  168.6583 C.3     1  UNL1        0.0614
      7 C         139.9489  140.5208  167.2107 C.3     1  UNL1        0.0595
      8 N         141.3433  140.1640  167.6876 N.3     1  UNL1       -0.2713
      9 O         141.1009  140.7889  164.8974 O.3     1  UNL1       -0.4790
     10 C         140.1298  144.2802  163.2795 C.ar    1  UNL1        0.0584
     11 C         141.3915  145.0588  163.5070 C.ar    1  UNL1        0.0343
     12 C         142.5564  144.4141  164.1979 C.ar    1  UNL1        0.1433
     13 F         143.8182  145.1928  164.4253 F       1  UNL1       -0.2041
     14 C         142.4595  142.9908  164.6613 C.ar    1  UNL1        0.0665
     15 C         141.1978  142.2122  164.4339 C.ar    1  UNL1        0.1408
     16 C         140.0329  142.8569  163.7430 C.ar    1  UNL1        0.0415
     17 N         137.5846  144.3649  162.7649 N.am    1  UNL1       -0.3253
     18 C         138.9649  144.9249  162.5886 C.2     1  UNL1        0.2429
     19 O         139.1803  146.1297  161.7213 O.2     1  UNL1       -0.2704
     20 H         136.8200  144.7880  162.3114 H       1  UNL1        0.1453
     21 H         137.4431  143.5741  163.3341 H       1  UNL1        0.1453
     22 C         141.2605  140.4835  166.2244 C.3     1  UNL1        0.0991
     23 C         140.7169  139.4672  165.2644 C.ar    1  UNL1       -0.0061
     24 C         141.6372  138.4666  164.6306 C.ar    1  UNL1       -0.0029
     25 C         141.0936  137.4504  163.6706 C.ar    1  UNL1       -0.0003
     26 C         139.6296  137.4347  163.3444 C.ar    1  UNL1       -0.0000
     27 C         138.7092  138.4354  163.9782 C.ar    1  UNL1       -0.0003
     28 C         139.2529  139.4516  164.9382 C.ar    1  UNL1       -0.0029
@<TRIPOS>BOND
     1    17    18   am
     2    18    19    2
     3    18    10    1
     4    10    11   ar
     5    11    12   ar
     6    12    13    1
     7    12    14   ar
     8    14    15   ar
     9    15     9    1
    10     1     9    1
    11     1     2    1
    12     3     2    1
    13     3     4    1
    14     4     5    1
    15     6     5    1
    16     6     7    1
    17     6     8    1
    18     8    22    1
    19    22    23    1
    20    23    24   ar
    21    24    25   ar
    22    25    26   ar
    23    26    27   ar
    24    27    28   ar
    25    15    16   ar
    26    16    10   ar
    27     7     1    1
    28    28    23   ar
    29     8     3    1
    30    17    20    1
    31    17    21    1
@<TRIPOS>MOLECULE
*****
 28 31 0 0 0
SMALL
GASTEIGER

@<TRIPOS>ATOM
      1 C         140.6969  141.0628  165.8421 C.3     1  UNL1        0.1686
      2 C         141.4631  140.0385  165.0587 C.3     1  UNL1        0.0595
      3 C         140.8875  138.6690  164.8504 C.3     1  UNL1        0.0614
      4 C         139.9642  137.4878  164.8946 C.3     1  UNL1        0.0175
      5 C         138.7472  137.8799  165.6789 C.3     1  UNL1        0.0175
      6 C         138.9184  139.3035  166.1195 C.3     1  UNL1        0.0614
      7 C         139.3551  140.7176  166.4172 C.3     1  UNL1        0.0595
      8 N         140.2413  139.7912  165.6074 N.3     1  UNL1       -0.2713
      9 O         141.2724  142.4323  166.0505 O.3     1  UNL1       -0.4790
     10 C         140.3246  144.8197  163.0253 C.ar    1  UNL1        0.0584
     11 C         141.6862  145.2525  162.5684 C.ar    1  UNL1        0.0343
     12 C         142.9098  144.7453  163.2723 C.ar    1  UNL1        0.1433
     13 F         144.2715  145.1782  162.8154 F       1  UNL1       -0.2041
     14 C         142.7719  143.8052  164.4329 C.ar    1  UNL1        0.0665
     15 C         141.4103  143.3724  164.8898 C.ar    1  UNL1        0.1408
     16 C         140.1867  143.8796  164.1860 C.ar    1  UNL1        0.0415
     17 N         137.7736  144.6690  162.5564 N.am    1  UNL1       -0.3253
     18 C         139.1010  145.3270  162.3214 C.2     1  UNL1        0.2429
     19 O         139.2047  146.4923  161.3826 O.2     1  UNL1       -0.2704
     20 H         136.9705  145.0019  162.0944 H       1  UNL1        0.1453
     21 H         137.7056  143.9042  163.1726 H       1  UNL1        0.1453
     22 C         140.8168  141.1607  165.8157 C.3     1  UNL1        0.0991
     23 C         141.2762  141.5816  167.1802 C.ar    1  UNL1       -0.0061
     24 C         142.5360  141.0075  167.7575 C.ar    1  UNL1       -0.0029
     25 C         142.9955  141.4284  169.1219 C.ar    1  UNL1       -0.0003
     26 C         142.1951  142.4233  169.9091 C.ar    1  UNL1       -0.0000
     27 C         140.9352  142.9973  169.3317 C.ar    1  UNL1       -0.0003
     28 C         140.4758  142.5764  167.9672 C.ar    1  UNL1       -0.0029
@<TRIPOS>BOND
     1    17    18   am
     2    18    19    2
     3    18    10    1
     4    10    11   ar
     5    11    12   ar
     6    12    13    1
     7    12    14   ar
     8    14    15   ar
     9    15     9    1
    10     1     9    1
    11     1     2    1
    12     3     2    1
    13     3     4    1
    14     4     5    1
    15     6     5    1
    16     6     7    1
    17     6     8    1
    18     8    22    1
    19    22    23    1
    20    23    24   ar
    21    24    25   ar
    22    25    26   ar
    23    26    27   ar
    24    27    28   ar
    25    15    16   ar
    26    16    10   ar
    27     7     1    1
    28    28    23   ar
    29     8     3    1
    30    17    20    1
    31    17    21    1
@<TRIPOS>MOLECULE
*****
 28 31 0 0 0
SMALL
GASTEIGER

@<TRIPOS>ATOM
      1 C         142.5512  140.7342  164.8267 C.3     1  UNL1        0.1686
      2 C         141.3766  140.0055  164.2442 C.3     1  UNL1        0.0595
      3 C         141.5879  138.9779  163.1722 C.3     1  UNL1        0.0614
      4 C         142.2457  138.0772  162.1692 C.3     1  UNL1        0.0175
      5 C         143.7241  138.3253  162.2228 C.3     1  UNL1        0.0175
      6 C         143.9800  139.3793  163.2589 C.3     1  UNL1        0.0614
      7 C         143.9372  140.4352  164.3370 C.3     1  UNL1        0.0595
      8 N         142.6597  139.7827  163.8457 N.3     1  UNL1       -0.2713
      9 O         142.3399  141.7619  165.8987 O.3     1  UNL1       -0.4790
     10 C         141.2053  141.8162  169.7013 C.ar    1  UNL1        0.0584
     11 C         141.6769  140.4673  170.1571 C.ar    1  UNL1        0.0343
     12 C         142.3696  139.5499  169.1935 C.ar    1  UNL1        0.1433
     13 F         142.8413  138.2008  169.6495 F       1  UNL1       -0.2041
     14 C         142.5906  139.9814  167.7741 C.ar    1  UNL1        0.0665
     15 C         142.1189  141.3304  167.3182 C.ar    1  UNL1        0.1408
     16 C         141.4263  142.2478  168.2818 C.ar    1  UNL1        0.0415
     17 N         140.0612  144.0916  170.2151 N.am    1  UNL1       -0.3253
     18 C         140.5126  142.7336  170.6649 C.2     1  UNL1        0.2429
     19 O         140.2713  142.2931  172.0784 O.2     1  UNL1       -0.2704
     20 H         139.6066  144.6937  170.8476 H       1  UNL1        0.1453
     21 H         140.2196  144.3807  169.2875 H       1  UNL1        0.1453
     22 C         142.4484  140.8103  164.9177 C.3     1  UNL1        0.0991
     23 C         142.5640  142.2697  164.5910 C.ar    1  UNL1       -0.0061
     24 C         141.3693  143.0216  164.0837 C.ar    1  UNL1       -0.0029
     25 C         141.4849  144.4810  163.7570 C.ar    1  UNL1       -0.0003
     26 C         142.7952  145.1885  163.9375 C.ar    1  UNL1       -0.0000
     27 C         143.9900  144.4365  164.4448 C.ar    1  UNL1       -0.0003
     28 C         143.8743  142.9771  164.7715 C.ar    1  UNL1       -0.0029
@<TRIPOS>BOND
     1    17    18   am
     2    18    19    2
     3    18    10    1
     4    10    11   ar
     5    11    12   ar
     6    12    13    1
     7    12    14   ar
     8    14    15   ar
     9    15     9    1
    10     1     9    1
    11     1     2    1
    12     3     2    1
    13     3     4    1
    14     4     5    1
    15     6     5    1
    16     6     7    1
    17     6     8    1
    18     8    22    1
    19    22    23    1
    20    23    24   ar
    21    24    25   ar
    22    25    26   ar
    23    26    27   ar
    24    27    28   ar
    25    15    16   ar
    26    16    10   ar
    27     7     1    1
    28    28    23   ar
    29     8     3    1
    30    17    20    1
    31    17    21    1
