@<TRIPOS>MOLECULE
*****
 29 32 0 0 0
SMALL
GASTEIGER

@<TRIPOS>ATOM
      1 N         144.4882  137.8060  161.6827 N.3     1  UNL1       -0.3206
      2 C         143.5028  138.8111  162.2009 C.3     1  UNL1        0.0750
      3 C         143.3376  139.0063  163.6790 C.3     1  UNL1        0.1079
      4 N         142.3522  140.0115  164.1972 N.pl3   1  UNL1       -0.2905
      5 C         141.5320  140.8215  163.2374 C.3     1  UNL1        0.0926
      6 C         141.6972  140.6263  161.7594 C.3     1  UNL1        0.0273
      7 C         142.6827  139.6211  161.2411 C.3     1  UNL1        0.0422
      8 H         144.9540  137.3506  162.4676 H       1  UNL1        0.1189
      9 H         145.1822  138.2778  161.1028 H       1  UNL1        0.1189
     10 C         142.1869  140.2067  165.6752 C.ar    1  UNL1        0.1520
     11 C         142.7927  139.2248  166.6338 C.ar    1  UNL1        0.0392
     12 C         142.6275  139.4201  168.1118 C.ar    1  UNL1        0.0418
     13 C         141.8563  140.5972  168.6312 C.ar    1  UNL1        0.1672
     14 N         141.6911  140.7924  170.1093 N.ar    1  UNL1       -0.1887
     15 C         140.9200  141.9695  170.6288 C.ar    1  UNL1        0.2822
     16 O         140.7547  142.1647  172.1068 O.2     1  UNL1       -0.2651
     17 C         140.3141  142.9514  169.6701 C.ar    1  UNL1        0.0832
     18 C         140.4794  142.7561  168.1921 C.ar    1  UNL1        0.1071
     19 N         141.2505  141.5790  167.6727 N.ar    1  UNL1       -0.2094
     20 N         141.4158  141.3838  166.1947 N.ar    1  UNL1       -0.1487
     21 C         142.8479  139.4260  159.7631 C.ar    1  UNL1        0.0087
     22 C         142.2011  138.2552  159.0843 C.ar    1  UNL1        0.0300
     23 C         142.3663  138.0600  157.6062 C.ar    1  UNL1        0.1672
     24 F         141.7194  136.8892  156.9274 F       1  UNL1       -0.2018
     25 C         143.1783  139.0356  156.8070 C.ar    1  UNL1        0.1696
     26 F         143.3436  138.8404  155.3289 F       1  UNL1       -0.2017
     27 C         143.8252  140.2064  157.4858 C.ar    1  UNL1        0.0612
     28 C         143.6600  140.4016  158.9639 C.ar    1  UNL1        0.1386
     29 F         144.3068  141.5724  159.6427 F       1  UNL1       -0.2044
@<TRIPOS>BOND
     1     2     1    1
     2     2     3    1
     3     3     4    1
     4     4    10    1
     5    10    11   ar
     6    11    12   ar
     7    12    13   ar
     8    13    14   ar
     9    14    15   ar
    10    15    16    2
    11    15    17   ar
    12    17    18   ar
    13    18    19   ar
    14    19    20   ar
    15     4     5    1
    16     5     6    1
    17     6     7    1
    18     7    21    1
    19    21    22   ar
    20    22    23   ar
    21    23    24    1
    22    23    25   ar
    23    25    26    1
    24    25    27   ar
    25    27    28   ar
    26    28    29    1
    27     7     2    1
    28    28    21   ar
    29    20    10   ar
    30    19    13   ar
    31     1     8    1
    32     1     9    1
@<TRIPOS>MOLECULE
*****
 29 32 0 0 0
SMALL
GASTEIGER

@<TRIPOS>ATOM
      1 N         142.6579  144.8088  161.6497 N.3     1  UNL1       -0.3206
      2 C         141.5496  143.8070  161.7833 C.3     1  UNL1        0.0750
      3 C         141.2726  143.1675  163.1116 C.3     1  UNL1        0.1079
      4 N         140.1642  142.1657  163.2451 N.pl3   1  UNL1       -0.2905
      5 C         139.3327  141.8034  162.0503 C.3     1  UNL1        0.0926
      6 C         139.6097  142.4429  160.7221 C.3     1  UNL1        0.0273
      7 C         140.7181  143.4447  160.5885 C.3     1  UNL1        0.0422
      8 H         143.1144  144.9333  162.5534 H       1  UNL1        0.1189
      9 H         142.2743  145.7006  161.3369 H       1  UNL1        0.1189
     10 C         139.8872  141.5262  164.5734 C.ar    1  UNL1        0.1520
     11 C         139.1237  140.2368  164.6404 C.ar    1  UNL1        0.0392
     12 C         138.8467  139.5973  165.9686 C.ar    1  UNL1        0.0418
     13 C         139.3333  140.2472  167.2299 C.ar    1  UNL1        0.1672
     14 N         139.0563  139.6077  168.5583 N.ar    1  UNL1       -0.1887
     15 C         139.5429  140.2576  169.8196 C.ar    1  UNL1        0.2822
     16 O         139.2660  139.6181  171.1478 O.2     1  UNL1       -0.2651
     17 C         140.3065  141.5470  169.7525 C.ar    1  UNL1        0.0832
     18 C         140.5835  142.1865  168.4243 C.ar    1  UNL1        0.1071
     19 N         140.0969  141.5366  167.1630 N.ar    1  UNL1       -0.2094
     20 N         140.3738  142.1760  165.8347 N.ar    1  UNL1       -0.1487
     21 C         140.9950  144.0842  159.2602 C.ar    1  UNL1        0.0087
     22 C         140.2067  145.2845  158.8269 C.ar    1  UNL1        0.0300
     23 C         140.4837  145.9240  157.4985 C.ar    1  UNL1        0.1672
     24 F         139.6954  147.1243  157.0652 F       1  UNL1       -0.2018
     25 C         141.5489  145.3632  156.6037 C.ar    1  UNL1        0.1696
     26 F         141.8258  146.0027  155.2754 F       1  UNL1       -0.2017
     27 C         142.3372  144.1629  157.0371 C.ar    1  UNL1        0.0612
     28 C         142.0602  143.5234  158.3654 C.ar    1  UNL1        0.1386
     29 F         142.8485  142.3231  158.7987 F       1  UNL1       -0.2044
@<TRIPOS>BOND
     1     2     1    1
     2     2     3    1
     3     3     4    1
     4     4    10    1
     5    10    11   ar
     6    11    12   ar
     7    12    13   ar
     8    13    14   ar
     9    14    15   ar
    10    15    16    2
    11    15    17   ar
    12    17    18   ar
    13    18    19   ar
    14    19    20   ar
    15     4     5    1
    16     5     6    1
    17     6     7    1
    18     7    21    1
    19    21    22   ar
    20    22    23   ar
    21    23    24    1
    22    23    25   ar
    23    25    26    1
    24    25    27   ar
    25    27    28   ar
    26    28    29    1
    27     7     2    1
    28    28    21   ar
    29    20    10   ar
    30    19    13   ar
    31     1     8    1
    32     1     9    1
@<TRIPOS>MOLECULE
*****
 29 32 0 0 0
SMALL
GASTEIGER

@<TRIPOS>ATOM
      1 N         139.9560  142.4600  165.4469 N.3     1  UNL1       -0.3206
      2 C         140.7450  141.1966  165.2700 C.3     1  UNL1        0.0750
      3 C         141.0190  140.6702  163.8923 C.3     1  UNL1        0.1079
      4 N         141.8080  139.4068  163.7153 N.pl3   1  UNL1       -0.2905
      5 C         142.3230  138.6698  164.9160 C.3     1  UNL1        0.0926
      6 C         142.0490  139.1961  166.2936 C.3     1  UNL1        0.0273
      7 C         141.2600  140.4596  166.4706 C.3     1  UNL1        0.0422
      8 H         139.6880  142.8243  164.5327 H       1  UNL1        0.1189
      9 H         140.5259  143.1512  165.9347 H       1  UNL1        0.1189
     10 C         142.0820  138.8804  162.3377 C.ar    1  UNL1        0.1520
     11 C         143.3944  138.2205  162.0342 C.ar    1  UNL1        0.0392
     12 C         143.6683  137.6941  160.6566 C.ar    1  UNL1        0.0418
     13 C         142.6299  137.8277  159.5825 C.ar    1  UNL1        0.1672
     14 N         142.9039  137.3013  158.2048 N.ar    1  UNL1       -0.1887
     15 C         141.8655  137.4349  157.1306 C.ar    1  UNL1        0.2822
     16 O         142.1394  136.9085  155.7530 O.2     1  UNL1       -0.2651
     17 C         140.5530  138.0948  157.4341 C.ar    1  UNL1        0.0832
     18 C         140.2791  138.6212  158.8117 C.ar    1  UNL1        0.1071
     19 N         141.3175  138.4876  159.8859 N.ar    1  UNL1       -0.2094
     20 N         141.0436  139.0140  161.2635 N.ar    1  UNL1       -0.1487
     21 C         140.9860  140.9859  167.8482 C.ar    1  UNL1        0.0087
     22 C         141.8890  142.0225  168.4483 C.ar    1  UNL1        0.0300
     23 C         141.6150  142.5489  169.8260 C.ar    1  UNL1        0.1672
     24 F         142.5180  143.5854  170.4261 F       1  UNL1       -0.2018
     25 C         140.4381  142.0387  170.6035 C.ar    1  UNL1        0.1696
     26 F         140.1641  142.5650  171.9811 F       1  UNL1       -0.2017
     27 C         139.5351  141.0021  170.0033 C.ar    1  UNL1        0.0612
     28 C         139.8091  140.4757  168.6257 C.ar    1  UNL1        0.1386
     29 F         138.9061  139.4392  168.0256 F       1  UNL1       -0.2044
@<TRIPOS>BOND
     1     2     1    1
     2     2     3    1
     3     3     4    1
     4     4    10    1
     5    10    11   ar
     6    11    12   ar
     7    12    13   ar
     8    13    14   ar
     9    14    15   ar
    10    15    16    2
    11    15    17   ar
    12    17    18   ar
    13    18    19   ar
    14    19    20   ar
    15     4     5    1
    16     5     6    1
    17     6     7    1
    18     7    21    1
    19    21    22   ar
    20    22    23   ar
    21    23    24    1
    22    23    25   ar
    23    25    26    1
    24    25    27   ar
    25    27    28   ar
    26    28    29    1
    27     7     2    1
    28    28    21   ar
    29    20    10   ar
    30    19    13   ar
    31     1     8    1
    32     1     9    1
@<TRIPOS>MOLECULE
*****
 29 32 0 0 0
SMALL
GASTEIGER

@<TRIPOS>ATOM
      1 N         136.9405  139.3064  161.2097 N.3     1  UNL1       -0.3206
      2 C         138.2164  139.7074  161.8888 C.3     1  UNL1        0.0750
      3 C         138.2560  139.8613  163.3804 C.3     1  UNL1        0.1079
      4 N         139.5319  140.2624  164.0594 N.pl3   1  UNL1       -0.2905
      5 C         140.7683  140.5096  163.2469 C.3     1  UNL1        0.0926
      6 C         140.7288  140.3558  161.7553 C.3     1  UNL1        0.0273
      7 C         139.4528  139.9547  161.0762 C.3     1  UNL1        0.0422
      8 H         136.2083  139.1809  161.9087 H       1  UNL1        0.1189
      9 H         137.0838  138.4308  160.7065 H       1  UNL1        0.1189
     10 C         139.5715  140.4162  165.5510 C.ar    1  UNL1        0.1520
     11 C         138.8882  139.4087  166.4273 C.ar    1  UNL1        0.0392
     12 C         138.9278  139.5625  167.9188 C.ar    1  UNL1        0.0418
     13 C         139.6507  140.7239  168.5341 C.ar    1  UNL1        0.1672
     14 N         139.6903  140.8778  170.0257 N.ar    1  UNL1       -0.1887
     15 C         140.4132  142.0392  170.6409 C.ar    1  UNL1        0.2822
     16 O         140.4528  142.1931  172.1325 O.2     1  UNL1       -0.2651
     17 C         141.0965  143.0468  169.7646 C.ar    1  UNL1        0.0832
     18 C         141.0569  142.8929  168.2730 C.ar    1  UNL1        0.1071
     19 N         140.3340  141.7315  167.6578 N.ar    1  UNL1       -0.2094
     20 N         140.2944  141.5776  166.1663 N.ar    1  UNL1       -0.1487
     21 C         139.4133  139.8009  159.5847 C.ar    1  UNL1        0.0087
     22 C         139.8763  138.5231  158.9500 C.ar    1  UNL1        0.0300
     23 C         139.8368  138.3692  157.4584 C.ar    1  UNL1        0.1672
     24 F         140.2999  137.0915  156.8237 F       1  UNL1       -0.2018
     25 C         139.3343  139.4932  156.6015 C.ar    1  UNL1        0.1696
     26 F         139.2947  139.3393  155.1100 F       1  UNL1       -0.2017
     27 C         138.8712  140.7710  157.2363 C.ar    1  UNL1        0.0612
     28 C         138.9107  140.9248  158.7278 C.ar    1  UNL1        0.1386
     29 F         138.4477  142.2026  159.3625 F       1  UNL1       -0.2044
@<TRIPOS>BOND
     1     2     1    1
     2     2     3    1
     3     3     4    1
     4     4    10    1
     5    10    11   ar
     6    11    12   ar
     7    12    13   ar
     8    13    14   ar
     9    14    15   ar
    10    15    16    2
    11    15    17   ar
    12    17    18   ar
    13    18    19   ar
    14    19    20   ar
    15     4     5    1
    16     5     6    1
    17     6     7    1
    18     7    21    1
    19    21    22   ar
    20    22    23   ar
    21    23    24    1
    22    23    25   ar
    23    25    26    1
    24    25    27   ar
    25    27    28   ar
    26    28    29    1
    27     7     2    1
    28    28    21   ar
    29    20    10   ar
    30    19    13   ar
    31     1     8    1
    32     1     9    1
@<TRIPOS>MOLECULE
*****
 29 32 0 0 0
SMALL
GASTEIGER

@<TRIPOS>ATOM
      1 N         144.4716  138.0246  161.6959 N.3     1  UNL1       -0.3206
      2 C         143.5574  139.0857  162.2328 C.3     1  UNL1        0.0750
      3 C         143.3509  139.2192  163.7126 C.3     1  UNL1        0.1079
      4 N         142.4367  140.2803  164.2495 N.pl3   1  UNL1       -0.2905
      5 C         141.7291  141.2079  163.3067 C.3     1  UNL1        0.0926
      6 C         141.9356  141.0744  161.8271 C.3     1  UNL1        0.0273
      7 C         142.8498  140.0133  161.2901 C.3     1  UNL1        0.0422
      8 H         144.8643  137.4901  162.4709 H       1  UNL1        0.1189
      9 H         145.2265  138.4617  161.1674 H       1  UNL1        0.1189
     10 C         142.2302  140.4139  165.7293 C.ar    1  UNL1        0.1520
     11 C         142.7782  139.3731  166.6600 C.ar    1  UNL1        0.0392
     12 C         142.5717  139.5067  168.1396 C.ar    1  UNL1        0.0418
     13 C         141.8171  140.6811  168.6886 C.ar    1  UNL1        0.1672
     14 N         141.6105  140.8147  170.1683 N.ar    1  UNL1       -0.1887
     15 C         140.8559  141.9891  170.7173 C.ar    1  UNL1        0.2822
     16 O         140.6493  142.1227  172.1969 O.2     1  UNL1       -0.2651
     17 C         140.3078  143.0299  169.7864 C.ar    1  UNL1        0.0832
     18 C         140.5144  142.8963  168.3068 C.ar    1  UNL1        0.1071
     19 N         141.2690  141.7219  167.7578 N.ar    1  UNL1       -0.2094
     20 N         141.4756  141.5883  166.2782 N.ar    1  UNL1       -0.1487
     21 C         143.0563  139.8798  159.8104 C.ar    1  UNL1        0.0087
     22 C         144.1006  140.7070  159.1213 C.ar    1  UNL1        0.0300
     23 C         144.3072  140.5735  157.6415 C.ar    1  UNL1        0.1672
     24 F         145.3515  141.4008  156.9524 F       1  UNL1       -0.2018
     25 C         143.4693  139.6128  156.8510 C.ar    1  UNL1        0.1696
     26 F         143.6758  139.4792  155.3713 F       1  UNL1       -0.2017
     27 C         142.4250  138.7855  157.5402 C.ar    1  UNL1        0.0612
     28 C         142.2185  138.9190  159.0199 C.ar    1  UNL1        0.1386
     29 F         141.1741  138.0917  159.7090 F       1  UNL1       -0.2044
@<TRIPOS>BOND
     1     2     1    1
     2     2     3    1
     3     3     4    1
     4     4    10    1
     5    10    11   ar
     6    11    12   ar
     7    12    13   ar
     8    13    14   ar
     9    14    15   ar
    10    15    16    2
    11    15    17   ar
    12    17    18   ar
    13    18    19   ar
    14    19    20   ar
    15     4     5    1
    16     5     6    1
    17     6     7    1
    18     7    21    1
    19    21    22   ar
    20    22    23   ar
    21    23    24    1
    22    23    25   ar
    23    25    26    1
    24    25    27   ar
    25    27    28   ar
    26    28    29    1
    27     7     2    1
    28    28    21   ar
    29    20    10   ar
    30    19    13   ar
    31     1     8    1
    32     1     9    1
@<TRIPOS>MOLECULE
*****
 29 32 0 0 0
SMALL
GASTEIGER

@<TRIPOS>ATOM
      1 N         144.3037  141.2180  164.7211 N.3     1  UNL1       -0.3206
      2 C         143.0886  142.0708  164.5064 C.3     1  UNL1        0.0750
      3 C         142.8316  142.6853  163.1623 C.3     1  UNL1        0.1079
      4 N         141.6165  143.5382  162.9476 N.pl3   1  UNL1       -0.2905
      5 C         140.6584  143.7767  164.0768 C.3     1  UNL1        0.0926
      6 C         140.9154  143.1622  165.4208 C.3     1  UNL1        0.0273
      7 C         142.1305  142.3093  165.6356 C.3     1  UNL1        0.0422
      8 H         144.8386  141.1638  163.8543 H       1  UNL1        0.1189
      9 H         144.0158  140.2806  165.0021 H       1  UNL1        0.1189
     10 C         141.3595  144.1527  161.6035 C.ar    1  UNL1        0.1520
     11 C         140.3117  145.2154  161.4527 C.ar    1  UNL1        0.0392
     12 C         140.0547  145.8298  160.1087 C.ar    1  UNL1        0.0418
     13 C         140.8455  145.3815  158.9155 C.ar    1  UNL1        0.1672
     14 N         140.5884  145.9960  157.5714 N.ar    1  UNL1       -0.1887
     15 C         141.3793  145.5477  156.3782 C.ar    1  UNL1        0.2822
     16 O         141.1223  146.1622  155.0342 O.2     1  UNL1       -0.2651
     17 C         142.4271  144.4850  156.5291 C.ar    1  UNL1        0.0832
     18 C         142.6841  143.8706  157.8731 C.ar    1  UNL1        0.1071
     19 N         141.8933  144.3188  159.0663 N.ar    1  UNL1       -0.2094
     20 N         142.1503  143.7044  160.4103 N.ar    1  UNL1       -0.1487
     21 C         142.3875  141.6949  166.9796 C.ar    1  UNL1        0.0087
     22 C         143.1841  142.4437  168.0066 C.ar    1  UNL1        0.0300
     23 C         143.4411  141.8292  169.3507 C.ar    1  UNL1        0.1672
     24 F         144.2377  142.5780  170.3777 F       1  UNL1       -0.2018
     25 C         142.9015  140.4660  169.6677 C.ar    1  UNL1        0.1696
     26 F         143.1585  139.8516  171.0117 F       1  UNL1       -0.2017
     27 C         142.1049  139.7172  168.6406 C.ar    1  UNL1        0.0612
     28 C         141.8479  140.3317  167.2966 C.ar    1  UNL1        0.1386
     29 F         141.0513  139.5829  166.2697 F       1  UNL1       -0.2044
@<TRIPOS>BOND
     1     2     1    1
     2     2     3    1
     3     3     4    1
     4     4    10    1
     5    10    11   ar
     6    11    12   ar
     7    12    13   ar
     8    13    14   ar
     9    14    15   ar
    10    15    16    2
    11    15    17   ar
    12    17    18   ar
    13    18    19   ar
    14    19    20   ar
    15     4     5    1
    16     5     6    1
    17     6     7    1
    18     7    21    1
    19    21    22   ar
    20    22    23   ar
    21    23    24    1
    22    23    25   ar
    23    25    26    1
    24    25    27   ar
    25    27    28   ar
    26    28    29    1
    27     7     2    1
    28    28    21   ar
    29    20    10   ar
    30    19    13   ar
    31     1     8    1
    32     1     9    1
@<TRIPOS>MOLECULE
*****
 29 32 0 0 0
SMALL
GASTEIGER

@<TRIPOS>ATOM
      1 N         136.5997  139.6701  160.6353 N.3     1  UNL1       -0.3206
      2 C         137.8123  140.1844  161.3530 C.3     1  UNL1        0.0750
      3 C         137.9134  140.0531  162.8439 C.3     1  UNL1        0.1079
      4 N         139.1259  140.5674  163.5616 N.pl3   1  UNL1       -0.2905
      5 C         140.2374  141.2131  162.7885 C.3     1  UNL1        0.0926
      6 C         140.1363  141.3445  161.2977 C.3     1  UNL1        0.0273
      7 C         138.9237  140.8301  160.5799 C.3     1  UNL1        0.0422
      8 H         135.9509  139.2658  161.3106 H       1  UNL1        0.1189
      9 H         136.8799  138.9557  159.9633 H       1  UNL1        0.1189
     10 C         139.2270  140.4361  165.0524 C.ar    1  UNL1        0.1520
     11 C         138.5363  139.3046  165.7542 C.ar    1  UNL1        0.0392
     12 C         138.6375  139.1733  167.2450 C.ar    1  UNL1        0.0418
     13 C         139.4293  140.1735  168.0340 C.ar    1  UNL1        0.1672
     14 N         139.5305  140.0421  169.5248 N.ar    1  UNL1       -0.1887
     15 C         140.3223  141.0423  170.3139 C.ar    1  UNL1        0.2822
     16 O         140.4235  140.9110  171.8046 O.2     1  UNL1       -0.2651
     17 C         141.0131  142.1739  169.6120 C.ar    1  UNL1        0.0832
     18 C         140.9119  142.3052  168.1212 C.ar    1  UNL1        0.1071
     19 N         140.1201  141.3050  167.3322 N.ar    1  UNL1       -0.2094
     20 N         140.0189  141.4363  165.8414 N.ar    1  UNL1       -0.1487
     21 C         138.8227  140.9615  159.0891 C.ar    1  UNL1        0.0087
     22 C         138.3826  142.2591  158.4787 C.ar    1  UNL1        0.0300
     23 C         138.2815  142.3905  156.9879 C.ar    1  UNL1        0.1672
     24 F         137.8414  143.6880  156.3775 F       1  UNL1       -0.2018
     25 C         138.6205  141.2243  156.1075 C.ar    1  UNL1        0.1696
     26 F         138.5194  141.3557  154.6167 F       1  UNL1       -0.2017
     27 C         139.0606  139.9267  156.7180 C.ar    1  UNL1        0.0612
     28 C         139.1617  139.7953  158.2087 C.ar    1  UNL1        0.1386
     29 F         139.6017  138.4978  158.8191 F       1  UNL1       -0.2044
@<TRIPOS>BOND
     1     2     1    1
     2     2     3    1
     3     3     4    1
     4     4    10    1
     5    10    11   ar
     6    11    12   ar
     7    12    13   ar
     8    13    14   ar
     9    14    15   ar
    10    15    16    2
    11    15    17   ar
    12    17    18   ar
    13    18    19   ar
    14    19    20   ar
    15     4     5    1
    16     5     6    1
    17     6     7    1
    18     7    21    1
    19    21    22   ar
    20    22    23   ar
    21    23    24    1
    22    23    25   ar
    23    25    26    1
    24    25    27   ar
    25    27    28   ar
    26    28    29    1
    27     7     2    1
    28    28    21   ar
    29    20    10   ar
    30    19    13   ar
    31     1     8    1
    32     1     9    1
@<TRIPOS>MOLECULE
*****
 29 32 0 0 0
SMALL
GASTEIGER

@<TRIPOS>ATOM
      1 N         141.7854  142.3007  165.5314 N.3     1  UNL1       -0.3206
      2 C         141.9086  140.9339  164.9259 C.3     1  UNL1        0.0750
      3 C         142.2165  140.7856  163.4652 C.3     1  UNL1        0.1079
      4 N         142.3396  139.4188  162.8597 N.pl3   1  UNL1       -0.2905
      5 C         142.1550  138.2003  163.7147 C.3     1  UNL1        0.0926
      6 C         141.8472  138.3485  165.1753 C.3     1  UNL1        0.0273
      7 C         141.7240  139.7153  165.7809 C.3     1  UNL1        0.0422
      8 H         141.9398  143.0066  164.8115 H       1  UNL1        0.1189
      9 H         142.4812  142.4096  166.2692 H       1  UNL1        0.1189
     10 C         142.6475  139.2705  161.3991 C.ar    1  UNL1        0.1520
     11 C         142.3020  137.9973  160.6853 C.ar    1  UNL1        0.0392
     12 C         142.6098  137.8491  159.2248 C.ar    1  UNL1        0.0418
     13 C         143.2631  138.9741  158.4780 C.ar    1  UNL1        0.1672
     14 N         143.5710  138.8258  157.0174 N.ar    1  UNL1       -0.1887
     15 C         144.2243  139.9508  156.2707 C.ar    1  UNL1        0.2822
     16 O         144.5321  139.8026  154.8101 O.2     1  UNL1       -0.2651
     17 C         144.5697  141.2240  156.9845 C.ar    1  UNL1        0.0832
     18 C         144.2619  141.3723  158.4451 C.ar    1  UNL1        0.1071
     19 N         143.6086  140.2473  159.1918 N.ar    1  UNL1       -0.2094
     20 N         143.3008  140.3955  160.6524 N.ar    1  UNL1       -0.1487
     21 C         141.4162  139.8636  167.2414 C.ar    1  UNL1        0.0087
     22 C         142.5223  139.7915  168.2520 C.ar    1  UNL1        0.0300
     23 C         142.2145  139.9397  169.7127 C.ar    1  UNL1        0.1672
     24 F         143.3205  139.8677  170.7233 F       1  UNL1       -0.2018
     25 C         140.8006  140.1600  170.1626 C.ar    1  UNL1        0.1696
     26 F         140.4928  140.3082  171.6232 F       1  UNL1       -0.2017
     27 C         139.6945  140.2321  169.1519 C.ar    1  UNL1        0.0612
     28 C         140.0023  140.0838  167.6914 C.ar    1  UNL1        0.1386
     29 F         138.8963  140.1559  166.6807 F       1  UNL1       -0.2044
@<TRIPOS>BOND
     1     2     1    1
     2     2     3    1
     3     3     4    1
     4     4    10    1
     5    10    11   ar
     6    11    12   ar
     7    12    13   ar
     8    13    14   ar
     9    14    15   ar
    10    15    16    2
    11    15    17   ar
    12    17    18   ar
    13    18    19   ar
    14    19    20   ar
    15     4     5    1
    16     5     6    1
    17     6     7    1
    18     7    21    1
    19    21    22   ar
    20    22    23   ar
    21    23    24    1
    22    23    25   ar
    23    25    26    1
    24    25    27   ar
    25    27    28   ar
    26    28    29    1
    27     7     2    1
    28    28    21   ar
    29    20    10   ar
    30    19    13   ar
    31     1     8    1
    32     1     9    1
@<TRIPOS>MOLECULE
*****
 29 32 0 0 0
SMALL
GASTEIGER

@<TRIPOS>ATOM
      1 N         142.3899  139.1504  166.4433 N.3     1  UNL1       -0.3206
      2 C         141.3333  139.6959  165.5289 C.3     1  UNL1        0.0750
      3 C         141.3188  139.3035  164.0812 C.3     1  UNL1        0.1079
      4 N         140.2623  139.8490  163.1668 N.pl3   1  UNL1       -0.2905
      5 C         139.2203  140.7869  163.7000 C.3     1  UNL1        0.0926
      6 C         139.2347  141.1793  165.1477 C.3     1  UNL1        0.0273
      7 C         140.2913  140.6338  166.0622 C.3     1  UNL1        0.0422
      8 H         143.0097  138.5343  165.9173 H       1  UNL1        0.1189
      9 H         141.9483  138.6249  167.1978 H       1  UNL1        0.1189
     10 C         140.2478  139.4565  161.7190 C.ar    1  UNL1        0.1520
     11 C         139.0187  139.6889  160.8913 C.ar    1  UNL1        0.0392
     12 C         139.0043  139.2965  159.4436 C.ar    1  UNL1        0.0418
     13 C         140.2189  138.6717  158.8237 C.ar    1  UNL1        0.1672
     14 N         140.2044  138.2793  157.3760 N.ar    1  UNL1       -0.1887
     15 C         141.4191  137.6545  156.7561 C.ar    1  UNL1        0.2822
     16 O         141.4047  137.2621  155.3085 O.2     1  UNL1       -0.2651
     17 C         142.6483  137.4222  157.5840 C.ar    1  UNL1        0.0832
     18 C         142.6627  137.8146  159.0316 C.ar    1  UNL1        0.1071
     19 N         141.4480  138.4394  159.6515 N.ar    1  UNL1       -0.2094
     20 N         141.4625  138.8318  161.0992 N.ar    1  UNL1       -0.1487
     21 C         140.3057  141.0263  167.5098 C.ar    1  UNL1        0.0087
     22 C         141.2019  142.1345  167.9775 C.ar    1  UNL1        0.0300
     23 C         141.2164  142.5269  169.4252 C.ar    1  UNL1        0.1672
     24 F         142.1125  143.6351  169.8929 F       1  UNL1       -0.2018
     25 C         140.3347  141.8112  170.4052 C.ar    1  UNL1        0.1696
     26 F         140.3491  142.2036  171.8528 F       1  UNL1       -0.2017
     27 C         139.4385  140.7029  169.9374 C.ar    1  UNL1        0.0612
     28 C         139.4240  140.3105  168.4898 C.ar    1  UNL1        0.1386
     29 F         138.5279  139.2023  168.0221 F       1  UNL1       -0.2044
@<TRIPOS>BOND
     1     2     1    1
     2     2     3    1
     3     3     4    1
     4     4    10    1
     5    10    11   ar
     6    11    12   ar
     7    12    13   ar
     8    13    14   ar
     9    14    15   ar
    10    15    16    2
    11    15    17   ar
    12    17    18   ar
    13    18    19   ar
    14    19    20   ar
    15     4     5    1
    16     5     6    1
    17     6     7    1
    18     7    21    1
    19    21    22   ar
    20    22    23   ar
    21    23    24    1
    22    23    25   ar
    23    25    26    1
    24    25    27   ar
    25    27    28   ar
    26    28    29    1
    27     7     2    1
    28    28    21   ar
    29    20    10   ar
    30    19    13   ar
    31     1     8    1
    32     1     9    1
