@<TRIPOS>MOLECULE
*****
 33 36 0 0 0
SMALL
GASTEIGER

@<TRIPOS>ATOM
      1 C         143.5626  141.0428  163.1700 C.ar    1  UNL1        0.3283
      2 N         143.6462  140.7281  164.6342 N.ar    1  UNL1       -0.1746
      3 C         142.7138  141.3976  165.5997 C.ar    1  UNL1        0.1712
      4 N         141.6977  142.3819  165.1010 N.ar    1  UNL1       -0.1943
      5 C         141.6140  142.6966  163.6368 C.ar    1  UNL1        0.2255
      6 N         142.5465  142.0270  162.6713 N.ar    1  UNL1       -0.1607
      7 C         142.7974  141.0829  167.0640 C.ar    1  UNL1        0.0553
      8 C         143.0256  142.1846  168.0561 C.ar    1  UNL1        0.0075
      9 C         143.1093  141.8700  169.5203 C.ar    1  UNL1        0.0340
     10 C         142.9647  140.4536  169.9924 C.ar    1  UNL1        0.1254
     11 N         143.0484  140.1389  171.4567 N.pl3   1  UNL1       -0.3426
     12 N         142.7366  139.3519  169.0004 N.ar    1  UNL1       -0.2295
     13 C         142.6529  139.6666  167.5362 C.ar    1  UNL1        0.1033
     14 H         143.1982  140.8620  172.1078 H       1  UNL1        0.1437
     15 H         142.9535  139.2093  171.7666 H       1  UNL1        0.1437
     16 N         140.5979  143.6809  163.1381 N.pl3   1  UNL1       -0.2729
     17 C         141.0406  144.8953  162.3771 C.3     1  UNL1        0.1257
     18 C         140.0245  145.8796  161.8784 C.3     1  UNL1        0.1637
     19 O         138.5657  145.6495  162.1407 O.3     1  UNL1       -0.3501
     20 C         138.1229  144.4351  162.9018 C.3     1  UNL1        0.1637
     21 C         139.1390  143.4508  163.4005 C.3     1  UNL1        0.1257
     22 O         144.4950  140.3732  162.2045 O.3     1  UNL1       -0.4222
     23 C         142.8477  138.2028  158.6231 C.ar    1  UNL1        0.0538
     24 C         143.2769  139.6348  158.5003 C.ar    1  UNL1        0.0076
     25 C         143.8260  140.3583  159.6941 C.ar    1  UNL1        0.0378
     26 C         143.9459  139.6497  161.0107 C.ar    1  UNL1        0.1487
     27 C         143.5167  138.2177  161.1335 C.ar    1  UNL1        0.0378
     28 C         142.9676  137.4943  159.9398 C.ar    1  UNL1        0.0076
     29 C         140.2833  136.8235  155.9266 C.3     1  UNL1        0.1152
     30 N         140.8324  137.5470  157.1204 N.am    1  UNL1       -0.2726
     31 C         139.9151  138.3381  158.0052 C.3     1  UNL1        0.1152
     32 C         142.2986  137.4794  157.4294 C.2     1  UNL1        0.2491
     33 O         143.2158  136.6883  156.5445 O.2     1  UNL1       -0.2699
@<TRIPOS>BOND
     1    29    30    1
     2    30    31    1
     3    30    32   am
     4    32    33    2
     5    32    23    1
     6    23    24   ar
     7    24    25   ar
     8    25    26   ar
     9    26    22    1
    10    22     1    1
    11     1     2   ar
    12     2     3   ar
    13     3     7    1
    14     7     8   ar
    15     8     9   ar
    16     9    10   ar
    17    10    11    1
    18    10    12   ar
    19    12    13   ar
    20     3     4   ar
    21     4     5   ar
    22     5    16    1
    23    16    17    1
    24    17    18    1
    25    18    19    1
    26    19    20    1
    27    20    21    1
    28     5     6   ar
    29    26    27   ar
    30    27    28   ar
    31    28    23   ar
    32     6     1   ar
    33    13     7   ar
    34    21    16    1
    35    11    14    1
    36    11    15    1
@<TRIPOS>MOLECULE
*****
 33 36 0 0 0
SMALL
GASTEIGER

@<TRIPOS>ATOM
      1 C         141.6612  139.8286  165.1135 C.ar    1  UNL1        0.3283
      2 N         141.2702  140.9620  164.2119 N.ar    1  UNL1       -0.1746
      3 C         140.6927  142.2182  164.7936 C.ar    1  UNL1        0.1712
      4 N         140.5061  142.3411  166.2769 N.ar    1  UNL1       -0.1943
      5 C         140.8971  141.2078  167.1785 C.ar    1  UNL1        0.2255
      6 N         141.4746  139.9516  166.5968 N.ar    1  UNL1       -0.1607
      7 C         140.3017  143.3515  163.8921 C.ar    1  UNL1        0.0553
      8 C         141.2967  144.4240  163.5610 C.ar    1  UNL1        0.0075
      9 C         140.9058  145.5573  162.6595 C.ar    1  UNL1        0.0340
     10 C         139.5199  145.6181  162.0890 C.ar    1  UNL1        0.1254
     11 N         139.1289  146.7514  161.1875 N.pl3   1  UNL1       -0.3426
     12 N         138.5249  144.5455  162.4201 N.ar    1  UNL1       -0.2295
     13 C         138.9158  143.4122  163.3216 C.ar    1  UNL1        0.1033
     14 H         139.7819  147.4554  160.9702 H       1  UNL1        0.1437
     15 H         138.2192  146.7913  160.8130 H       1  UNL1        0.1437
     16 N         140.7105  141.3308  168.6617 N.pl3   1  UNL1       -0.2729
     17 C         140.9014  140.1325  169.5435 C.3     1  UNL1        0.1257
     18 C         140.7149  140.2554  171.0268 C.3     1  UNL1        0.1637
     19 O         140.3374  141.5767  171.6283 O.3     1  UNL1       -0.3501
     20 C         140.1464  142.7751  170.7465 C.3     1  UNL1        0.1637
     21 C         140.3330  142.6521  169.2632 C.3     1  UNL1        0.1257
     22 O         142.2387  138.5724  164.5318 O.3     1  UNL1       -0.4222
     23 C         142.6062  138.1210  160.0696 C.ar    1  UNL1        0.0538
     24 C         143.8368  138.2924  160.9100 C.ar    1  UNL1        0.0076
     25 C         143.7143  138.4429  162.3974 C.ar    1  UNL1        0.0378
     26 C         142.3612  138.4220  163.0444 C.ar    1  UNL1        0.1487
     27 C         141.1307  138.2506  162.2041 C.ar    1  UNL1        0.0378
     28 C         141.2532  138.1001  160.7167 C.ar    1  UNL1        0.0076
     29 C         142.7942  139.0308  156.2113 C.3     1  UNL1        0.1152
     30 N         142.6717  139.1813  157.6987 N.am    1  UNL1       -0.2726
     31 C         142.4921  140.5427  158.3025 C.3     1  UNL1        0.1152
     32 C         142.7288  137.9705  158.5822 C.2     1  UNL1        0.2491
     33 O         142.9083  136.6093  157.9784 O.2     1  UNL1       -0.2699
@<TRIPOS>BOND
     1    29    30    1
     2    30    31    1
     3    30    32   am
     4    32    33    2
     5    32    23    1
     6    23    24   ar
     7    24    25   ar
     8    25    26   ar
     9    26    22    1
    10    22     1    1
    11     1     2   ar
    12     2     3   ar
    13     3     7    1
    14     7     8   ar
    15     8     9   ar
    16     9    10   ar
    17    10    11    1
    18    10    12   ar
    19    12    13   ar
    20     3     4   ar
    21     4     5   ar
    22     5    16    1
    23    16    17    1
    24    17    18    1
    25    18    19    1
    26    19    20    1
    27    20    21    1
    28     5     6   ar
    29    26    27   ar
    30    27    28   ar
    31    28    23   ar
    32     6     1   ar
    33    13     7   ar
    34    21    16    1
    35    11    14    1
    36    11    15    1
@<TRIPOS>MOLECULE
*****
 33 36 0 0 0
SMALL
GASTEIGER

@<TRIPOS>ATOM
      1 C         140.9220  140.2687  163.6020 C.ar    1  UNL1        0.3283
      2 N         141.2787  140.5649  165.0286 N.ar    1  UNL1       -0.1746
      3 C         141.3249  141.9844  165.5109 C.ar    1  UNL1        0.1712
      4 N         141.0144  143.1078  164.5667 N.ar    1  UNL1       -0.1943
      5 C         140.6577  142.8117  163.1402 C.ar    1  UNL1        0.2255
      6 N         140.6115  141.3921  162.6578 N.ar    1  UNL1       -0.1607
      7 C         141.6816  142.2807  166.9375 C.ar    1  UNL1        0.0553
      8 C         140.6051  142.6250  167.9238 C.ar    1  UNL1        0.0075
      9 C         140.9618  142.9212  169.3503 C.ar    1  UNL1        0.0340
     10 C         142.3949  142.8731  169.7906 C.ar    1  UNL1        0.1254
     11 N         142.7516  143.1693  171.2172 N.pl3   1  UNL1       -0.3426
     12 N         143.4713  142.5287  168.8044 N.ar    1  UNL1       -0.2295
     13 C         143.1147  142.2325  167.3778 C.ar    1  UNL1        0.1033
     14 H         142.0451  143.3953  171.8645 H       1  UNL1        0.1437
     15 H         143.6922  143.1377  171.5062 H       1  UNL1        0.1437
     16 N         140.3472  143.9351  162.1960 N.pl3   1  UNL1       -0.2729
     17 C         140.5229  143.7434  160.7187 C.3     1  UNL1        0.1257
     18 C         140.2124  144.8669  159.7745 C.3     1  UNL1        0.1637
     19 O         139.7263  146.1819  160.3076 O.3     1  UNL1       -0.3501
     20 C         139.5506  146.3736  161.7849 C.3     1  UNL1        0.1637
     21 C         139.8611  145.2502  162.7291 C.3     1  UNL1        0.1257
     22 O         140.8758  138.8491  163.1197 O.3     1  UNL1       -0.4222
     23 C         142.2563  137.8410  158.9571 C.ar    1  UNL1        0.0538
     24 C         140.8667  138.3592  159.1815 C.ar    1  UNL1        0.0076
     25 C         140.4066  138.6952  160.5690 C.ar    1  UNL1        0.0378
     26 C         141.3360  138.5131  161.7322 C.ar    1  UNL1        0.1487
     27 C         142.7256  137.9949  161.5078 C.ar    1  UNL1        0.0378
     28 C         143.1858  137.6588  160.1202 C.ar    1  UNL1        0.0076
     29 C         143.7728  138.2346  155.3108 C.3     1  UNL1        0.1152
     30 N         143.3126  138.5706  156.6983 N.am    1  UNL1       -0.2726
     31 C         143.4486  139.9724  157.2147 C.3     1  UNL1        0.1152
     32 C         142.7165  137.5049  157.5695 C.2     1  UNL1        0.2491
     33 O         142.5806  136.1032  157.0531 O.2     1  UNL1       -0.2699
@<TRIPOS>BOND
     1    29    30    1
     2    30    31    1
     3    30    32   am
     4    32    33    2
     5    32    23    1
     6    23    24   ar
     7    24    25   ar
     8    25    26   ar
     9    26    22    1
    10    22     1    1
    11     1     2   ar
    12     2     3   ar
    13     3     7    1
    14     7     8   ar
    15     8     9   ar
    16     9    10   ar
    17    10    11    1
    18    10    12   ar
    19    12    13   ar
    20     3     4   ar
    21     4     5   ar
    22     5    16    1
    23    16    17    1
    24    17    18    1
    25    18    19    1
    26    19    20    1
    27    20    21    1
    28     5     6   ar
    29    26    27   ar
    30    27    28   ar
    31    28    23   ar
    32     6     1   ar
    33    13     7   ar
    34    21    16    1
    35    11    14    1
    36    11    15    1
@<TRIPOS>MOLECULE
*****
 33 36 0 0 0
SMALL
GASTEIGER

@<TRIPOS>ATOM
      1 C         139.5565  139.0689  162.5046 C.ar    1  UNL1        0.3283
      2 N         140.0862  138.3670  161.2893 N.ar    1  UNL1       -0.1746
      3 C         140.5049  139.1609  160.0875 C.ar    1  UNL1        0.1712
      4 N         140.3941  140.6567  160.1009 N.ar    1  UNL1       -0.1943
      5 C         139.8644  141.3586  161.3161 C.ar    1  UNL1        0.2255
      6 N         139.4457  140.5647  162.5180 N.ar    1  UNL1       -0.1607
      7 C         141.0346  138.4589  158.8722 C.ar    1  UNL1        0.0553
      8 C         140.1040  138.0856  157.7566 C.ar    1  UNL1        0.0075
      9 C         140.6336  137.3837  156.5414 C.ar    1  UNL1        0.0340
     10 C         142.0938  137.0552  156.4417 C.ar    1  UNL1        0.1254
     11 N         142.6234  136.3533  155.2265 N.pl3   1  UNL1       -0.3426
     12 N         143.0243  137.4286  157.5574 N.ar    1  UNL1       -0.2295
     13 C         142.4948  138.1304  158.7726 C.ar    1  UNL1        0.1033
     14 H         142.0127  136.1082  154.4942 H       1  UNL1        0.1437
     15 H         143.5818  136.1376  155.1611 H       1  UNL1        0.1437
     16 N         139.7535  142.8545  161.3295 N.pl3   1  UNL1       -0.2729
     17 C         140.2950  143.6570  160.1838 C.3     1  UNL1        0.1257
     18 C         140.1842  145.1528  160.1972 C.3     1  UNL1        0.1637
     19 O         139.5318  145.8461  161.3564 O.3     1  UNL1       -0.3501
     20 C         138.9902  145.0436  162.5022 C.3     1  UNL1        0.1637
     21 C         139.1011  143.5478  162.4888 C.3     1  UNL1        0.1257
     22 O         139.1378  138.2750  163.7064 O.3     1  UNL1       -0.4222
     23 C         139.9578  139.8503  167.8411 C.ar    1  UNL1        0.0538
     24 C         138.5563  139.5027  167.4352 C.ar    1  UNL1        0.0076
     25 C         138.2829  138.9776  166.0570 C.ar    1  UNL1        0.0378
     26 C         139.4111  138.8001  165.0846 C.ar    1  UNL1        0.1487
     27 C         140.8127  139.1477  165.4905 C.ar    1  UNL1        0.0378
     28 C         141.0860  139.6728  166.8687 C.ar    1  UNL1        0.0076
     29 C         140.7735  142.3617  170.8038 C.3     1  UNL1        0.1152
     30 N         140.5001  141.8366  169.4255 N.am    1  UNL1       -0.2726
     31 C         140.4958  142.7727  168.2535 C.3     1  UNL1        0.1152
     32 C         140.2311  140.3754  169.2193 C.2     1  UNL1        0.2491
     33 O         140.2355  139.4393  170.3914 O.2     1  UNL1       -0.2699
@<TRIPOS>BOND
     1    29    30    1
     2    30    31    1
     3    30    32   am
     4    32    33    2
     5    32    23    1
     6    23    24   ar
     7    24    25   ar
     8    25    26   ar
     9    26    22    1
    10    22     1    1
    11     1     2   ar
    12     2     3   ar
    13     3     7    1
    14     7     8   ar
    15     8     9   ar
    16     9    10   ar
    17    10    11    1
    18    10    12   ar
    19    12    13   ar
    20     3     4   ar
    21     4     5   ar
    22     5    16    1
    23    16    17    1
    24    17    18    1
    25    18    19    1
    26    19    20    1
    27    20    21    1
    28     5     6   ar
    29    26    27   ar
    30    27    28   ar
    31    28    23   ar
    32     6     1   ar
    33    13     7   ar
    34    21    16    1
    35    11    14    1
    36    11    15    1
@<TRIPOS>MOLECULE
*****
 33 36 0 0 0
SMALL
GASTEIGER

@<TRIPOS>ATOM
      1 C         143.5332  139.8479  159.8769 C.ar    1  UNL1        0.3283
      2 N         142.6683  140.9836  160.3376 N.ar    1  UNL1       -0.1746
      3 C         142.6287  142.2619  159.5539 C.ar    1  UNL1        0.1712
      4 N         143.4539  142.4047  158.3095 N.ar    1  UNL1       -0.1943
      5 C         144.3187  141.2691  157.8487 C.ar    1  UNL1        0.2255
      6 N         144.3584  139.9906  158.6324 N.ar    1  UNL1       -0.1607
      7 C         141.7638  143.3976  160.0147 C.ar    1  UNL1        0.0553
      8 C         141.8713  143.8981  161.4246 C.ar    1  UNL1        0.0075
      9 C         141.0065  145.0338  161.8854 C.ar    1  UNL1        0.0340
     10 C         140.0341  145.6689  160.9362 C.ar    1  UNL1        0.1254
     11 N         139.1692  146.8046  161.3970 N.pl3   1  UNL1       -0.3426
     12 N         139.9265  145.1684  159.5263 N.ar    1  UNL1       -0.2295
     13 C         140.7913  144.0328  159.0655 C.ar    1  UNL1        0.1033
     14 H         139.2398  147.1331  162.3224 H       1  UNL1        0.1437
     15 H         138.5310  147.2215  160.7740 H       1  UNL1        0.1437
     16 N         145.1439  141.4118  156.6043 N.pl3   1  UNL1       -0.2729
     17 C         146.4999  142.0495  156.6725 C.3     1  UNL1        0.1257
     18 C         147.3251  142.1922  155.4281 C.3     1  UNL1        0.1637
     19 O         146.7943  141.6973  154.1153 O.3     1  UNL1       -0.3501
     20 C         145.4383  141.0595  154.0470 C.3     1  UNL1        0.1637
     21 C         144.6131  140.9168  155.2915 C.3     1  UNL1        0.1257
     22 O         143.5729  138.5696  160.6606 O.3     1  UNL1       -0.4222
     23 C         143.3384  138.6764  165.1532 C.ar    1  UNL1        0.0538
     24 C         144.4804  139.3435  164.4457 C.ar    1  UNL1        0.0076
     25 C         144.5586  139.3079  162.9482 C.ar    1  UNL1        0.0378
     26 C         143.4947  138.6052  162.1581 C.ar    1  UNL1        0.1487
     27 C         142.3526  137.9380  162.8656 C.ar    1  UNL1        0.0378
     28 C         142.2745  137.9736  164.3631 C.ar    1  UNL1        0.0076
     29 C         142.3079  139.7581  168.8298 C.3     1  UNL1        0.1152
     30 N         142.3861  139.7225  167.3323 N.am    1  UNL1       -0.2726
     31 C         141.5900  140.6976  166.5163 C.3     1  UNL1        0.1152
     32 C         143.2602  138.7120  166.6507 C.2     1  UNL1        0.2491
     33 O         144.0562  137.7370  167.4667 O.2     1  UNL1       -0.2699
@<TRIPOS>BOND
     1    29    30    1
     2    30    31    1
     3    30    32   am
     4    32    33    2
     5    32    23    1
     6    23    24   ar
     7    24    25   ar
     8    25    26   ar
     9    26    22    1
    10    22     1    1
    11     1     2   ar
    12     2     3   ar
    13     3     7    1
    14     7     8   ar
    15     8     9   ar
    16     9    10   ar
    17    10    11    1
    18    10    12   ar
    19    12    13   ar
    20     3     4   ar
    21     4     5   ar
    22     5    16    1
    23    16    17    1
    24    17    18    1
    25    18    19    1
    26    19    20    1
    27    20    21    1
    28     5     6   ar
    29    26    27   ar
    30    27    28   ar
    31    28    23   ar
    32     6     1   ar
    33    13     7   ar
    34    21    16    1
    35    11    14    1
    36    11    15    1
@<TRIPOS>MOLECULE
*****
 33 36 0 0 0
SMALL
GASTEIGER

@<TRIPOS>ATOM
      1 C         138.9338  139.4335  160.0785 C.ar    1  UNL1        0.3283
      2 N         139.5190  138.3889  159.1749 N.ar    1  UNL1       -0.1746
      3 C         140.5876  138.7620  158.1907 C.ar    1  UNL1        0.1712
      4 N         141.0712  140.1796  158.1100 N.ar    1  UNL1       -0.1943
      5 C         140.4860  141.2242  159.0135 C.ar    1  UNL1        0.2255
      6 N         139.4173  140.8511  159.9978 N.ar    1  UNL1       -0.1607
      7 C         141.1729  137.7174  157.2870 C.ar    1  UNL1        0.0553
      8 C         142.5788  137.2414  157.5029 C.ar    1  UNL1        0.0075
      9 C         143.1641  136.1968  156.5994 C.ar    1  UNL1        0.0340
     10 C         142.3433  135.6283  155.4800 C.ar    1  UNL1        0.1254
     11 N         142.9285  134.5837  154.5764 N.pl3   1  UNL1       -0.3426
     12 N         140.9373  136.1043  155.2641 N.ar    1  UNL1       -0.2295
     13 C         140.3521  137.1488  156.1677 C.ar    1  UNL1        0.1033
     14 H         143.8513  134.2713  154.7180 H       1  UNL1        0.1437
     15 H         142.3898  134.2106  153.8417 H       1  UNL1        0.1437
     16 N         140.9695  142.6418  158.9329 N.pl3   1  UNL1       -0.2729
     17 C         140.3312  143.7014  159.7813 C.3     1  UNL1        0.1257
     18 C         140.8147  145.1190  159.7006 C.3     1  UNL1        0.1637
     19 O         141.9365  145.4771  158.7715 O.3     1  UNL1       -0.3501
     20 C         142.5749  144.4175  157.9231 C.3     1  UNL1        0.1637
     21 C         142.0914  142.9999  158.0037 C.3     1  UNL1        0.1257
     22 O         137.8651  139.0604  161.0627 O.3     1  UNL1       -0.4222
     23 C         138.6916  139.2990  165.4797 C.ar    1  UNL1        0.0538
     24 C         138.0906  140.4727  164.7646 C.ar    1  UNL1        0.0076
     25 C         137.8151  140.3931  163.2923 C.ar    1  UNL1        0.0378
     26 C         138.1406  139.1399  162.5350 C.ar    1  UNL1        0.1487
     27 C         138.7415  137.9663  163.2501 C.ar    1  UNL1        0.0378
     28 C         139.0170  138.0458  164.7224 C.ar    1  UNL1        0.0076
     29 C         140.5235  140.0642  168.9160 C.3     1  UNL1        0.1152
     30 N         140.2480  139.9847  167.4437 N.am    1  UNL1       -0.2726
     31 C         141.2535  140.5113  166.4630 C.3     1  UNL1        0.1152
     32 C         138.9671  139.3786  166.9520 C.2     1  UNL1        0.2491
     33 O         137.9616  138.8520  167.9327 O.2     1  UNL1       -0.2699
@<TRIPOS>BOND
     1    29    30    1
     2    30    31    1
     3    30    32   am
     4    32    33    2
     5    32    23    1
     6    23    24   ar
     7    24    25   ar
     8    25    26   ar
     9    26    22    1
    10    22     1    1
    11     1     2   ar
    12     2     3   ar
    13     3     7    1
    14     7     8   ar
    15     8     9   ar
    16     9    10   ar
    17    10    11    1
    18    10    12   ar
    19    12    13   ar
    20     3     4   ar
    21     4     5   ar
    22     5    16    1
    23    16    17    1
    24    17    18    1
    25    18    19    1
    26    19    20    1
    27    20    21    1
    28     5     6   ar
    29    26    27   ar
    30    27    28   ar
    31    28    23   ar
    32     6     1   ar
    33    13     7   ar
    34    21    16    1
    35    11    14    1
    36    11    15    1
@<TRIPOS>MOLECULE
*****
 33 36 0 0 0
SMALL
GASTEIGER

@<TRIPOS>ATOM
      1 C         141.9979  143.1231  163.0906 C.ar    1  UNL1        0.3283
      2 N         142.2336  143.2680  164.5649 N.ar    1  UNL1       -0.1746
      3 C         141.5767  142.3221  165.5260 C.ar    1  UNL1        0.1712
      4 N         140.6840  141.2313  165.0128 N.ar    1  UNL1       -0.1943
      5 C         140.4483  141.0863  163.5386 C.ar    1  UNL1        0.2255
      6 N         141.1052  142.0322  162.5774 N.ar    1  UNL1       -0.1607
      7 C         141.8124  142.4670  167.0003 C.ar    1  UNL1        0.0553
      8 C         140.6549  142.6997  167.9255 C.ar    1  UNL1        0.0075
      9 C         140.8906  142.8446  169.3998 C.ar    1  UNL1        0.0340
     10 C         142.2837  142.7568  169.9487 C.ar    1  UNL1        0.1254
     11 N         142.5194  142.9017  171.4231 N.pl3   1  UNL1       -0.3426
     12 N         143.4412  142.5241  169.0235 N.ar    1  UNL1       -0.2295
     13 C         143.2055  142.3792  167.5493 C.ar    1  UNL1        0.1033
     14 H         141.7598  143.0545  172.0304 H       1  UNL1        0.1437
     15 H         143.4338  142.8440  171.7834 H       1  UNL1        0.1437
     16 N         139.5557  139.9955  163.0255 N.pl3   1  UNL1       -0.2729
     17 C         139.6013  138.6328  163.6506 C.3     1  UNL1        0.1257
     18 C         138.7087  137.5419  163.1375 C.3     1  UNL1        0.1637
     19 O         137.7704  137.8139  161.9992 O.3     1  UNL1       -0.3501
     20 C         137.7247  139.1767  161.3740 C.3     1  UNL1        0.1637
     21 C         138.6174  140.2675  161.8872 C.3     1  UNL1        0.1257
     22 O         142.6548  144.0690  162.1295 O.3     1  UNL1       -0.4222
     23 C         140.7880  144.8495  158.1100 C.ar    1  UNL1        0.0538
     24 C         141.9614  143.9222  158.2247 C.ar    1  UNL1        0.0076
     25 C         142.5837  143.6620  159.5645 C.ar    1  UNL1        0.0378
     26 C         142.0325  144.3291  160.7897 C.ar    1  UNL1        0.1487
     27 C         140.8590  145.2564  160.6751 C.ar    1  UNL1        0.0378
     28 C         140.2368  145.5165  159.3352 C.ar    1  UNL1        0.0076
     29 C         138.4475  144.4782  154.9266 C.3     1  UNL1        0.1152
     30 N         139.0697  144.2180  156.2664 N.am    1  UNL1       -0.2726
     31 C         138.5960  143.0661  157.1025 C.3     1  UNL1        0.1152
     32 C         140.1657  145.1096  156.7702 C.2     1  UNL1        0.2491
     33 O         140.6394  146.2614  155.9342 O.2     1  UNL1       -0.2699
@<TRIPOS>BOND
     1    29    30    1
     2    30    31    1
     3    30    32   am
     4    32    33    2
     5    32    23    1
     6    23    24   ar
     7    24    25   ar
     8    25    26   ar
     9    26    22    1
    10    22     1    1
    11     1     2   ar
    12     2     3   ar
    13     3     7    1
    14     7     8   ar
    15     8     9   ar
    16     9    10   ar
    17    10    11    1
    18    10    12   ar
    19    12    13   ar
    20     3     4   ar
    21     4     5   ar
    22     5    16    1
    23    16    17    1
    24    17    18    1
    25    18    19    1
    26    19    20    1
    27    20    21    1
    28     5     6   ar
    29    26    27   ar
    30    27    28   ar
    31    28    23   ar
    32     6     1   ar
    33    13     7   ar
    34    21    16    1
    35    11    14    1
    36    11    15    1
@<TRIPOS>MOLECULE
*****
 33 36 0 0 0
SMALL
GASTEIGER

@<TRIPOS>ATOM
      1 C         143.5169  138.4294  160.3580 C.ar    1  UNL1        0.3283
      2 N         143.4045  139.8973  160.0704 N.ar    1  UNL1       -0.1746
      3 C         142.8339  140.3641  158.7642 C.ar    1  UNL1        0.1712
      4 N         142.3755  139.3631  157.7454 N.ar    1  UNL1       -0.1943
      5 C         142.4879  137.8952  158.0330 C.ar    1  UNL1        0.2255
      6 N         143.0586  137.4283  159.3393 N.ar    1  UNL1       -0.1607
      7 C         142.7215  141.8321  158.4766 C.ar    1  UNL1        0.0553
      8 C         142.7299  142.3213  157.0586 C.ar    1  UNL1        0.0075
      9 C         142.6176  143.7891  156.7710 C.ar    1  UNL1        0.0340
     10 C         142.4968  144.7677  157.9013 C.ar    1  UNL1        0.1254
     11 N         142.3844  146.2357  157.6137 N.pl3   1  UNL1       -0.3426
     12 N         142.4884  144.2785  159.3192 N.ar    1  UNL1       -0.2295
     13 C         142.6007  142.8107  159.6069 C.ar    1  UNL1        0.1033
     14 H         142.3899  146.5568  156.6830 H       1  UNL1        0.1437
     15 H         142.3052  146.8780  158.3556 H       1  UNL1        0.1437
     16 N         142.0295  136.8941  157.0143 N.pl3   1  UNL1       -0.2729
     17 C         140.8188  137.1782  156.1756 C.3     1  UNL1        0.1257
     18 C         140.3605  136.1771  155.1568 C.3     1  UNL1        0.1637
     19 O         141.1128  134.8920  154.9768 O.3     1  UNL1       -0.3501
     20 C         142.3236  134.6079  155.8155 C.3     1  UNL1        0.1637
     21 C         142.7820  135.6090  156.8343 C.3     1  UNL1        0.1257
     22 O         144.0876  137.9626  161.6643 O.3     1  UNL1       -0.4222
     23 C         142.7674  139.8864  165.5122 C.ar    1  UNL1        0.0538
     24 C         144.0729  140.2790  164.8867 C.ar    1  UNL1        0.0076
     25 C         144.5130  139.6378  163.6041 C.ar    1  UNL1        0.0378
     26 C         143.6475  138.6039  162.9469 C.ar    1  UNL1        0.1487
     27 C         142.3419  138.2112  163.5724 C.ar    1  UNL1        0.0378
     28 C         141.9019  138.8525  164.8550 C.ar    1  UNL1        0.0076
     29 C         141.0859  142.4364  168.0459 C.3     1  UNL1        0.1152
     30 N         141.5260  141.7952  166.7633 N.am    1  UNL1       -0.2726
     31 C         141.1647  142.4216  165.4490 C.3     1  UNL1        0.1152
     32 C         142.3273  140.5276  166.7948 C.2     1  UNL1        0.2491
     33 O         142.6886  139.9013  168.1090 O.2     1  UNL1       -0.2699
@<TRIPOS>BOND
     1    29    30    1
     2    30    31    1
     3    30    32   am
     4    32    33    2
     5    32    23    1
     6    23    24   ar
     7    24    25   ar
     8    25    26   ar
     9    26    22    1
    10    22     1    1
    11     1     2   ar
    12     2     3   ar
    13     3     7    1
    14     7     8   ar
    15     8     9   ar
    16     9    10   ar
    17    10    11    1
    18    10    12   ar
    19    12    13   ar
    20     3     4   ar
    21     4     5   ar
    22     5    16    1
    23    16    17    1
    24    17    18    1
    25    18    19    1
    26    19    20    1
    27    20    21    1
    28     5     6   ar
    29    26    27   ar
    30    27    28   ar
    31    28    23   ar
    32     6     1   ar
    33    13     7   ar
    34    21    16    1
    35    11    14    1
    36    11    15    1
@<TRIPOS>MOLECULE
*****
 33 36 0 0 0
SMALL
GASTEIGER

@<TRIPOS>ATOM
      1 C         143.5740  141.4226  163.3073 C.ar    1  UNL1        0.3283
      2 N         143.7164  141.0471  164.7526 N.ar    1  UNL1       -0.1746
      3 C         142.6421  141.4152  165.7325 C.ar    1  UNL1        0.1712
      4 N         141.4253  142.1588  165.2672 N.ar    1  UNL1       -0.1943
      5 C         141.2829  142.5343  163.8220 C.ar    1  UNL1        0.2255
      6 N         142.3573  142.1662  162.8420 N.ar    1  UNL1       -0.1607
      7 C         142.7845  141.0397  167.1778 C.ar    1  UNL1        0.0553
      8 C         143.0818  142.0954  168.2012 C.ar    1  UNL1        0.0075
      9 C         143.2242  141.7199  169.6464 C.ar    1  UNL1        0.0340
     10 C         143.0693  140.2889  170.0682 C.ar    1  UNL1        0.1254
     11 N         143.2117  139.9134  171.5135 N.pl3   1  UNL1       -0.3426
     12 N         142.7720  139.2332  169.0449 N.ar    1  UNL1       -0.2295
     13 C         142.6296  139.6087  167.5997 C.ar    1  UNL1        0.1033
     14 H         143.4068  140.6062  172.1852 H       1  UNL1        0.1437
     15 H         143.1100  138.9741  171.7904 H       1  UNL1        0.1437
     16 N         140.0661  143.2779  163.3567 N.pl3   1  UNL1       -0.2729
     17 C         140.1049  144.7716  163.2245 C.3     1  UNL1        0.1257
     18 C         138.8881  145.5152  162.7592 C.3     1  UNL1        0.1637
     19 O         137.6326  144.7651  162.4261 O.3     1  UNL1       -0.3501
     20 C         137.5937  143.2714  162.5583 C.3     1  UNL1        0.1637
     21 C         138.8105  142.5278  163.0236 C.3     1  UNL1        0.1257
     22 O         144.6484  141.0545  162.3274 O.3     1  UNL1       -0.4222
     23 C         143.8764  141.3988  157.9075 C.ar    1  UNL1        0.0538
     24 C         144.4029  142.5777  158.6710 C.ar    1  UNL1        0.0076
     25 C         144.6602  142.4629  160.1443 C.ar    1  UNL1        0.0378
     26 C         144.3911  141.1693  160.8541 C.ar    1  UNL1        0.1487
     27 C         143.8646  139.9904  160.0906 C.ar    1  UNL1        0.0378
     28 C         143.6073  140.1051  158.6173 C.ar    1  UNL1        0.0076
     29 C         144.4983  141.5078  153.9894 C.3     1  UNL1        0.1152
     30 N         144.7556  141.3931  155.4627 N.am    1  UNL1       -0.2726
     31 C         146.1495  141.1579  155.9646 C.3     1  UNL1        0.1152
     32 C         143.6191  141.5135  156.4342 C.2     1  UNL1        0.2491
     33 O         142.2253  141.7487  155.9324 O.2     1  UNL1       -0.2699
@<TRIPOS>BOND
     1    29    30    1
     2    30    31    1
     3    30    32   am
     4    32    33    2
     5    32    23    1
     6    23    24   ar
     7    24    25   ar
     8    25    26   ar
     9    26    22    1
    10    22     1    1
    11     1     2   ar
    12     2     3   ar
    13     3     7    1
    14     7     8   ar
    15     8     9   ar
    16     9    10   ar
    17    10    11    1
    18    10    12   ar
    19    12    13   ar
    20     3     4   ar
    21     4     5   ar
    22     5    16    1
    23    16    17    1
    24    17    18    1
    25    18    19    1
    26    19    20    1
    27    20    21    1
    28     5     6   ar
    29    26    27   ar
    30    27    28   ar
    31    28    23   ar
    32     6     1   ar
    33    13     7   ar
    34    21    16    1
    35    11    14    1
    36    11    15    1
