@<TRIPOS>MOLECULE
*****
 28 31 0 0 0
SMALL
GASTEIGER

@<TRIPOS>ATOM
      1 N         139.4693  139.4826  163.1607 N.3     1  UNL1       -0.2659
      2 C         138.8051  138.5656  164.1447 C.3     1  UNL1        0.0941
      3 C         138.9188  138.8351  165.6159 C.3     1  UNL1        0.1096
      4 N         139.6966  140.0215  166.1032 N.pl3   1  UNL1       -0.2890
      5 C         140.3608  140.9384  165.1193 C.3     1  UNL1        0.1096
      6 C         140.2471  140.6690  163.6480 C.3     1  UNL1        0.0941
      7 C         139.8102  140.2909  167.5745 C.ar    1  UNL1        0.1521
      8 C         138.6977  139.8918  168.4981 C.ar    1  UNL1        0.0393
      9 C         138.8114  140.1613  169.9693 C.ar    1  UNL1        0.0436
     10 C         140.0375  140.8298  170.5168 C.ar    1  UNL1        0.1867
     11 N         140.4293  141.2215  171.9108 N.ar    1  UNL1       -0.1270
     12 N         141.7840  141.8626  171.8486 N.ar    1  UNL1       -0.1228
     13 C         142.2293  141.8672  170.4163 C.ar    1  UNL1        0.2583
     14 N         141.1499  141.2288  169.5932 N.ar    1  UNL1       -0.1866
     15 N         141.0363  140.9594  168.1220 N.ar    1  UNL1       -0.1473
     16 C         143.5263  142.4140  169.8980 C.3     1  UNL1        0.4541
     17 F         144.8234  142.9610  169.3797 F       1  UNL1       -0.1631
     18 F         143.3097  143.6729  170.6842 F       1  UNL1       -0.1631
     19 F         143.7429  141.1551  169.1117 F       1  UNL1       -0.1631
     20 C         139.3557  139.2132  161.6895 C.3     1  UNL1        0.1015
     21 F         143.9742  136.9610  160.9170 F       1  UNL1       -0.2018
     22 C         142.9033  137.9136  160.4748 C.ar    1  UNL1        0.1671
     23 C         143.0707  138.6928  159.2040 C.ar    1  UNL1        0.0319
     24 C         141.9998  139.6455  158.7618 C.ar    1  UNL1        0.0022
     25 C         140.7614  139.8189  159.5903 C.ar    1  UNL1       -0.0005
     26 C         140.5940  139.0397  160.8610 C.ar    1  UNL1        0.0236
     27 C         141.6650  138.0871  161.3033 C.ar    1  UNL1        0.1647
     28 F         141.4976  137.3079  162.5740 F       1  UNL1       -0.2021
@<TRIPOS>BOND
     1    21    22    1
     2    22    23   ar
     3    23    24   ar
     4    24    25   ar
     5    25    26   ar
     6    26    20    1
     7    20     1    1
     8     1     2    1
     9     2     3    1
    10     3     4    1
    11     4     7    1
    12     7     8   ar
    13     8     9   ar
    14     9    10   ar
    15    10    11   ar
    16    11    12   ar
    17    12    13   ar
    18    13    16    1
    19    16    17    1
    20    16    18    1
    21    16    19    1
    22    13    14   ar
    23    14    15   ar
    24     4     5    1
    25     5     6    1
    26    26    27   ar
    27    27    28    1
    28    27    22   ar
    29     6     1    1
    30    15     7   ar
    31    14    10   ar
@<TRIPOS>MOLECULE
*****
 28 31 0 0 0
SMALL
GASTEIGER

@<TRIPOS>ATOM
      1 N         143.0717  138.2727  162.5434 N.3     1  UNL1       -0.2659
      2 C         141.6593  137.8424  162.8084 C.3     1  UNL1        0.0941
      3 C         140.9693  138.2694  164.0699 C.3     1  UNL1        0.1096
      4 N         141.6917  139.1267  165.0666 N.pl3   1  UNL1       -0.2890
      5 C         143.1040  139.5569  164.8017 C.3     1  UNL1        0.1096
      6 C         143.7941  139.1299  163.5401 C.3     1  UNL1        0.0941
      7 C         141.0017  139.5537  166.3282 C.ar    1  UNL1        0.1521
      8 C         139.5494  139.2389  166.5321 C.ar    1  UNL1        0.0393
      9 C         138.8594  139.6659  167.7937 C.ar    1  UNL1        0.0436
     10 C         139.6218  140.4077  168.8513 C.ar    1  UNL1        0.1867
     11 N         139.2127  140.9521  170.1879 N.ar    1  UNL1       -0.1270
     12 N         140.4122  141.6034  170.8099 N.ar    1  UNL1       -0.1228
     13 C         141.5627  141.4614  169.8579 C.ar    1  UNL1        0.2583
     14 N         141.0741  140.7224  168.6474 N.ar    1  UNL1       -0.1866
     15 N         141.7641  140.2954  167.3858 N.ar    1  UNL1       -0.1473
     16 C         142.9568  141.9693  170.0776 C.3     1  UNL1        0.4541
     17 F         144.3511  142.4771  170.2974 F       1  UNL1       -0.1631
     18 F         143.4424  140.5608  170.2521 F       1  UNL1       -0.1631
     19 F         142.4713  143.3777  169.9032 F       1  UNL1       -0.1631
     20 C         143.7616  137.8457  161.2818 C.3     1  UNL1        0.1015
     21 F         143.6759  142.0197  158.1884 F       1  UNL1       -0.2018
     22 C         143.3566  140.5739  158.4283 C.ar    1  UNL1        0.1671
     23 C         142.6751  139.7693  157.3615 C.ar    1  UNL1        0.0319
     24 C         142.3558  138.3234  157.6014 C.ar    1  UNL1        0.0022
     25 C         142.7180  137.6822  158.9082 C.ar    1  UNL1       -0.0005
     26 C         143.3995  138.4868  159.9751 C.ar    1  UNL1        0.0236
     27 C         143.7188  139.9327  159.7351 C.ar    1  UNL1        0.1647
     28 F         144.4002  140.7374  160.8019 F       1  UNL1       -0.2021
@<TRIPOS>BOND
     1    21    22    1
     2    22    23   ar
     3    23    24   ar
     4    24    25   ar
     5    25    26   ar
     6    26    20    1
     7    20     1    1
     8     1     2    1
     9     2     3    1
    10     3     4    1
    11     4     7    1
    12     7     8   ar
    13     8     9   ar
    14     9    10   ar
    15    10    11   ar
    16    11    12   ar
    17    12    13   ar
    18    13    16    1
    19    16    17    1
    20    16    18    1
    21    16    19    1
    22    13    14   ar
    23    14    15   ar
    24     4     5    1
    25     5     6    1
    26    26    27   ar
    27    27    28    1
    28    27    22   ar
    29     6     1    1
    30    15     7   ar
    31    14    10   ar
@<TRIPOS>MOLECULE
*****
 28 31 0 0 0
SMALL
GASTEIGER

@<TRIPOS>ATOM
      1 N         138.8896  138.5430  162.6795 N.3     1  UNL1       -0.2659
      2 C         139.4913  138.0900  161.3822 C.3     1  UNL1        0.0941
      3 C         139.1809  138.8275  160.1135 C.3     1  UNL1        0.1096
      4 N         138.2689  140.0181  160.1420 N.pl3   1  UNL1       -0.2890
      5 C         137.6672  140.4711  161.4392 C.3     1  UNL1        0.1096
      6 C         137.9776  139.7336  162.7080 C.3     1  UNL1        0.0941
      7 C         137.9585  140.7556  158.8732 C.ar    1  UNL1        0.1521
      8 C         138.8290  141.8965  158.4367 C.ar    1  UNL1        0.0393
      9 C         138.5187  142.6339  157.1680 C.ar    1  UNL1        0.0436
     10 C         137.3377  142.2305  156.3357 C.ar    1  UNL1        0.1867
     11 N         136.7879  142.7666  155.0471 N.ar    1  UNL1       -0.1270
     12 N         135.5776  141.9570  154.6872 N.ar    1  UNL1       -0.1228
     13 C         135.3794  140.9206  155.7533 C.ar    1  UNL1        0.2583
     14 N         136.4672  141.0897  156.7721 N.ar    1  UNL1       -0.1866
     15 N         136.7776  140.3522  158.0409 N.ar    1  UNL1       -0.1473
     16 C         134.2854  139.8952  155.7936 C.3     1  UNL1        0.4541
     17 F         133.1914  138.8696  155.8339 F       1  UNL1       -0.1631
     18 F         135.1495  138.9429  155.0213 F       1  UNL1       -0.1631
     19 F         133.4212  140.8474  156.5660 F       1  UNL1       -0.1631
     20 C         139.2000  137.8055  163.9482 C.3     1  UNL1        0.1015
     21 F         139.2806  140.5921  168.3332 F       1  UNL1       -0.2018
     22 C         140.0102  139.8783  167.2341 C.ar    1  UNL1        0.1671
     23 C         141.5098  139.8441  167.2282 C.ar    1  UNL1        0.0319
     24 C         142.2395  139.1304  166.1291 C.ar    1  UNL1        0.0022
     25 C         141.4695  138.4508  165.0357 C.ar    1  UNL1       -0.0005
     26 C         139.9699  138.4850  165.0415 C.ar    1  UNL1        0.0236
     27 C         139.2403  139.1988  166.1407 C.ar    1  UNL1        0.1647
     28 F         137.7407  139.2330  166.1466 F       1  UNL1       -0.2021
@<TRIPOS>BOND
     1    21    22    1
     2    22    23   ar
     3    23    24   ar
     4    24    25   ar
     5    25    26   ar
     6    26    20    1
     7    20     1    1
     8     1     2    1
     9     2     3    1
    10     3     4    1
    11     4     7    1
    12     7     8   ar
    13     8     9   ar
    14     9    10   ar
    15    10    11   ar
    16    11    12   ar
    17    12    13   ar
    18    13    16    1
    19    16    17    1
    20    16    18    1
    21    16    19    1
    22    13    14   ar
    23    14    15   ar
    24     4     5    1
    25     5     6    1
    26    26    27   ar
    27    27    28    1
    28    27    22   ar
    29     6     1    1
    30    15     7   ar
    31    14    10   ar
@<TRIPOS>MOLECULE
*****
 28 31 0 0 0
SMALL
GASTEIGER

@<TRIPOS>ATOM
      1 N         140.2752  144.6153  162.1936 N.3     1  UNL1       -0.2659
      2 C         141.2532  144.8065  163.3149 C.3     1  UNL1        0.0941
      3 C         141.1618  143.9513  164.5438 C.3     1  UNL1        0.1096
      4 N         140.0925  142.9048  164.6514 N.pl3   1  UNL1       -0.2890
      5 C         139.1146  142.7136  163.5303 C.3     1  UNL1        0.1096
      6 C         139.2060  143.5688  162.3013 C.3     1  UNL1        0.0941
      7 C         140.0011  142.0496  165.8804 C.ar    1  UNL1        0.1521
      8 C         139.2024  140.7803  165.8532 C.ar    1  UNL1        0.0393
      9 C         139.1110  139.9251  167.0821 C.ar    1  UNL1        0.0436
     10 C         139.8185  140.3393  168.3383 C.ar    1  UNL1        0.1867
     11 N         139.9099  139.7048  169.6945 N.ar    1  UNL1       -0.1270
     12 N         140.7652  140.5820  170.5598 N.ar    1  UNL1       -0.1228
     13 C         141.2024  141.7586  169.7385 C.ar    1  UNL1        0.2583
     14 N         140.6172  141.6086  168.3655 N.ar    1  UNL1       -0.1866
     15 N         140.7086  142.4637  167.1366 N.ar    1  UNL1       -0.1473
     16 C         142.0720  142.8871  170.2078 C.3     1  UNL1        0.4541
     17 F         142.9417  144.0156  170.6771 F       1  UNL1       -0.1631
     18 F         143.2237  141.9377  170.3568 F       1  UNL1       -0.1631
     19 F         140.9203  143.8365  170.0588 F       1  UNL1       -0.1631
     20 C         140.3666  145.4705  160.9647 C.3     1  UNL1        0.1015
     21 F         141.2583  145.6119  155.8476 F       1  UNL1       -0.2018
     22 C         141.5632  145.0493  157.2043 C.ar    1  UNL1        0.1671
     23 C         142.6188  143.9950  157.3591 C.ar    1  UNL1        0.0319
     24 C         142.9237  143.4324  158.7157 C.ar    1  UNL1        0.0022
     25 C         142.1730  143.9243  159.9177 C.ar    1  UNL1       -0.0005
     26 C         141.1174  144.9787  159.7629 C.ar    1  UNL1        0.0236
     27 C         140.8125  145.5412  158.4061 C.ar    1  UNL1        0.1647
     28 F         139.7569  146.5956  158.2513 F       1  UNL1       -0.2021
@<TRIPOS>BOND
     1    21    22    1
     2    22    23   ar
     3    23    24   ar
     4    24    25   ar
     5    25    26   ar
     6    26    20    1
     7    20     1    1
     8     1     2    1
     9     2     3    1
    10     3     4    1
    11     4     7    1
    12     7     8   ar
    13     8     9   ar
    14     9    10   ar
    15    10    11   ar
    16    11    12   ar
    17    12    13   ar
    18    13    16    1
    19    16    17    1
    20    16    18    1
    21    16    19    1
    22    13    14   ar
    23    14    15   ar
    24     4     5    1
    25     5     6    1
    26    26    27   ar
    27    27    28    1
    28    27    22   ar
    29     6     1    1
    30    15     7   ar
    31    14    10   ar
@<TRIPOS>MOLECULE
*****
 28 31 0 0 0
SMALL
GASTEIGER

@<TRIPOS>ATOM
      1 N         142.1233  136.6424  156.3801 N.3     1  UNL1       -0.2659
      2 C         140.6647  136.8752  156.1187 C.3     1  UNL1        0.0941
      3 C         139.8539  137.7002  157.0736 C.3     1  UNL1        0.1096
      4 N         140.5017  138.2924  158.2901 N.pl3   1  UNL1       -0.2890
      5 C         141.9602  138.0596  158.5516 C.3     1  UNL1        0.1096
      6 C         142.7711  137.2346  157.5966 C.3     1  UNL1        0.0941
      7 C         139.6908  139.1174  159.2451 C.ar    1  UNL1        0.1521
      8 C         138.9580  140.3302  158.7531 C.ar    1  UNL1        0.0393
      9 C         138.1472  141.1551  159.7081 C.ar    1  UNL1        0.0436
     10 C         138.0692  140.7673  161.1550 C.ar    1  UNL1        0.1867
     11 N         137.3547  141.3822  162.3219 N.ar    1  UNL1       -0.1270
     12 N         137.6460  140.5494  163.5349 N.ar    1  UNL1       -0.1228
     13 C         138.5405  139.4198  163.1178 C.ar    1  UNL1        0.2583
     14 N         138.8021  139.5545  161.6469 N.ar    1  UNL1       -0.1866
     15 N         139.6129  138.7296  160.6920 N.ar    1  UNL1       -0.1473
     16 C         139.0790  138.3444  164.0141 C.3     1  UNL1        0.4541
     17 F         139.6175  137.2689  164.9106 F       1  UNL1       -0.1631
     18 F         139.7261  139.3872  164.8766 F       1  UNL1       -0.1631
     19 F         138.4319  137.3016  163.1517 F       1  UNL1       -0.1631
     20 C         142.9341  135.8174  155.4252 C.3     1  UNL1        0.1015
     21 F         142.8000  131.0161  157.4071 F       1  UNL1       -0.2018
     22 C         142.5784  131.9534  156.2573 C.ar    1  UNL1        0.1671
     23 C         142.0681  131.4274  154.9485 C.ar    1  UNL1        0.0319
     24 C         141.8465  132.3647  153.7986 C.ar    1  UNL1        0.0022
     25 C         142.1351  133.8281  153.9575 C.ar    1  UNL1       -0.0005
     26 C         142.6454  134.3541  155.2663 C.ar    1  UNL1        0.0236
     27 C         142.8670  133.4167  156.4162 C.ar    1  UNL1        0.1647
     28 F         143.3773  133.9427  157.7250 F       1  UNL1       -0.2021
@<TRIPOS>BOND
     1    21    22    1
     2    22    23   ar
     3    23    24   ar
     4    24    25   ar
     5    25    26   ar
     6    26    20    1
     7    20     1    1
     8     1     2    1
     9     2     3    1
    10     3     4    1
    11     4     7    1
    12     7     8   ar
    13     8     9   ar
    14     9    10   ar
    15    10    11   ar
    16    11    12   ar
    17    12    13   ar
    18    13    16    1
    19    16    17    1
    20    16    18    1
    21    16    19    1
    22    13    14   ar
    23    14    15   ar
    24     4     5    1
    25     5     6    1
    26    26    27   ar
    27    27    28    1
    28    27    22   ar
    29     6     1    1
    30    15     7   ar
    31    14    10   ar
@<TRIPOS>MOLECULE
*****
 28 31 0 0 0
SMALL
GASTEIGER

@<TRIPOS>ATOM
      1 N         139.8344  138.8728  163.3185 N.3     1  UNL1       -0.2659
      2 C         138.9508  138.1897  164.3198 C.3     1  UNL1        0.0941
      3 C         138.9965  138.5981  165.7624 C.3     1  UNL1        0.1096
      4 N         139.9259  139.6896  166.2038 N.pl3   1  UNL1       -0.2890
      5 C         140.8095  140.3728  165.2026 C.3     1  UNL1        0.1096
      6 C         140.7638  139.9644  163.7599 C.3     1  UNL1        0.0941
      7 C         139.9716  140.0980  167.6464 C.ar    1  UNL1        0.1521
      8 C         138.8105  139.7989  168.5477 C.ar    1  UNL1        0.0393
      9 C         138.8562  140.2073  169.9903 C.ar    1  UNL1        0.0436
     10 C         140.0631  140.9147  170.5316 C.ar    1  UNL1        0.1867
     11 N         140.3921  141.4350  171.8995 N.ar    1  UNL1       -0.1270
     12 N         141.7565  142.0556  171.8436 N.ar    1  UNL1       -0.1228
     13 C         142.2708  141.9189  170.4412 C.ar    1  UNL1        0.2583
     14 N         141.2242  141.2138  169.6303 N.ar    1  UNL1       -0.1866
     15 N         141.1785  140.8054  168.1877 N.ar    1  UNL1       -0.1473
     16 C         143.5986  142.4024  169.9379 C.3     1  UNL1        0.4541
     17 F         144.9264  142.8859  169.4347 F       1  UNL1       -0.1631
     18 F         143.4449  143.6600  170.7408 F       1  UNL1       -0.1631
     19 F         143.7522  141.1447  169.1350 F       1  UNL1       -0.1631
     20 C         139.7887  138.4645  161.8759 C.3     1  UNL1        0.1015
     21 F         138.1161  142.6006  159.2124 F       1  UNL1       -0.2018
     22 C         139.1620  141.5561  159.4679 C.ar    1  UNL1        0.1671
     23 C         140.4174  141.5353  158.6473 C.ar    1  UNL1        0.0319
     24 C         141.4632  140.4909  158.9028 C.ar    1  UNL1        0.0022
     25 C         141.2537  139.4673  159.9791 C.ar    1  UNL1       -0.0005
     26 C         139.9983  139.4881  160.7997 C.ar    1  UNL1        0.0236
     27 C         138.9524  140.5325  160.5441 C.ar    1  UNL1        0.1647
     28 F         137.6970  140.5534  161.3648 F       1  UNL1       -0.2021
@<TRIPOS>BOND
     1    21    22    1
     2    22    23   ar
     3    23    24   ar
     4    24    25   ar
     5    25    26   ar
     6    26    20    1
     7    20     1    1
     8     1     2    1
     9     2     3    1
    10     3     4    1
    11     4     7    1
    12     7     8   ar
    13     8     9   ar
    14     9    10   ar
    15    10    11   ar
    16    11    12   ar
    17    12    13   ar
    18    13    16    1
    19    16    17    1
    20    16    18    1
    21    16    19    1
    22    13    14   ar
    23    14    15   ar
    24     4     5    1
    25     5     6    1
    26    26    27   ar
    27    27    28    1
    28    27    22   ar
    29     6     1    1
    30    15     7   ar
    31    14    10   ar
@<TRIPOS>MOLECULE
*****
 28 31 0 0 0
SMALL
GASTEIGER

@<TRIPOS>ATOM
      1 N         142.4291  142.3649  161.6817 N.3     1  UNL1       -0.2659
      2 C         141.3919  141.2814  161.6614 C.3     1  UNL1        0.0941
      3 C         140.7564  140.8274  162.9420 C.3     1  UNL1        0.1096
      4 N         141.1580  141.4569  164.2430 N.pl3   1  UNL1       -0.2890
      5 C         142.1952  142.5403  164.2633 C.3     1  UNL1        0.1096
      6 C         142.8307  142.9943  162.9826 C.3     1  UNL1        0.0941
      7 C         140.5225  141.0028  165.5236 C.ar    1  UNL1        0.1521
      8 C         139.6089  139.8132  165.5269 C.ar    1  UNL1        0.0393
      9 C         138.9734  139.3592  166.8075 C.ar    1  UNL1        0.0436
     10 C         139.2515  140.0949  168.0848 C.ar    1  UNL1        0.1867
     11 N         138.7728  139.8819  169.4904 N.ar    1  UNL1       -0.1270
     12 N         139.3906  140.9399  170.3558 N.ar    1  UNL1       -0.1228
     13 C         140.2511  141.8068  169.4850 C.ar    1  UNL1        0.2583
     14 N         140.1650  141.2845  168.0815 N.ar    1  UNL1       -0.1866
     15 N         140.8005  141.7385  166.8009 N.ar    1  UNL1       -0.1473
     16 C         141.0562  142.9885  169.9382 C.3     1  UNL1        0.4541
     17 F         141.8614  144.1702  170.3914 F       1  UNL1       -0.1631
     18 F         141.9776  142.0730  170.6884 F       1  UNL1       -0.1631
     19 F         140.1348  143.9040  169.1879 F       1  UNL1       -0.1631
     20 C         143.0646  142.8189  160.4011 C.3     1  UNL1        0.1015
     21 F         142.5499  145.1240  155.7728 F       1  UNL1       -0.2018
     22 C         142.0759  144.9170  157.1808 C.ar    1  UNL1        0.1671
     23 C         140.8706  145.6555  157.6826 C.ar    1  UNL1        0.0319
     24 C         140.3967  145.4485  159.0906 C.ar    1  UNL1        0.0022
     25 C         141.1280  144.5029  159.9968 C.ar    1  UNL1       -0.0005
     26 C         142.3333  143.7644  159.4950 C.ar    1  UNL1        0.0236
     27 C         142.8072  143.9715  158.0869 C.ar    1  UNL1        0.1647
     28 F         144.0125  143.2329  157.5851 F       1  UNL1       -0.2021
@<TRIPOS>BOND
     1    21    22    1
     2    22    23   ar
     3    23    24   ar
     4    24    25   ar
     5    25    26   ar
     6    26    20    1
     7    20     1    1
     8     1     2    1
     9     2     3    1
    10     3     4    1
    11     4     7    1
    12     7     8   ar
    13     8     9   ar
    14     9    10   ar
    15    10    11   ar
    16    11    12   ar
    17    12    13   ar
    18    13    16    1
    19    16    17    1
    20    16    18    1
    21    16    19    1
    22    13    14   ar
    23    14    15   ar
    24     4     5    1
    25     5     6    1
    26    26    27   ar
    27    27    28    1
    28    27    22   ar
    29     6     1    1
    30    15     7   ar
    31    14    10   ar
@<TRIPOS>MOLECULE
*****
 28 31 0 0 0
SMALL
GASTEIGER

@<TRIPOS>ATOM
      1 N         139.4862  138.4402  162.1597 N.3     1  UNL1       -0.2659
      2 C         140.4047  138.6941  161.0013 C.3     1  UNL1        0.0941
      3 C         139.9223  139.4835  159.8206 C.3     1  UNL1        0.1096
      4 N         138.5214  140.0191  159.7983 N.pl3   1  UNL1       -0.2890
      5 C         137.6028  139.7652  160.9566 C.3     1  UNL1        0.1096
      6 C         138.0852  138.9758  162.1374 C.3     1  UNL1        0.0941
      7 C         138.0390  140.8085  158.6175 C.ar    1  UNL1        0.1521
      8 C         138.7744  142.0440  158.1903 C.ar    1  UNL1        0.0393
      9 C         138.2920  142.8334  157.0096 C.ar    1  UNL1        0.0436
     10 C         137.0742  142.3872  156.2561 C.ar    1  UNL1        0.1867
     11 N         136.3678  142.9576  155.0619 N.ar    1  UNL1       -0.1270
     12 N         135.1959  142.0745  154.7511 N.ar    1  UNL1       -0.1228
     13 C         135.1779  140.9584  155.7532 C.ar    1  UNL1        0.2583
     14 N         136.3387  141.1517  156.6833 N.ar    1  UNL1       -0.1866
     15 N         136.8211  140.3623  157.8640 N.ar    1  UNL1       -0.1473
     16 C         134.1751  139.8445  155.8144 C.3     1  UNL1        0.4541
     17 F         133.1723  138.7306  155.8756 F       1  UNL1       -0.1631
     18 F         134.9239  139.1114  154.7412 F       1  UNL1       -0.1631
     19 F         133.4263  140.5777  156.8876 F       1  UNL1       -0.1631
     20 C         139.9686  137.6508  163.3404 C.3     1  UNL1        0.1015
     21 F         144.7566  138.9629  164.8745 F       1  UNL1       -0.2018
     22 C         143.2758  138.9435  165.1128 C.ar    1  UNL1        0.1671
     23 C         142.7081  139.5608  166.3564 C.ar    1  UNL1        0.0319
     24 C         141.2274  139.5415  166.5948 C.ar    1  UNL1        0.0022
     25 C         140.3141  138.9048  165.5894 C.ar    1  UNL1       -0.0005
     26 C         140.8818  138.2875  164.3457 C.ar    1  UNL1        0.0236
     27 C         142.3626  138.3068  164.1074 C.ar    1  UNL1        0.1647
     28 F         142.9303  137.6895  162.8638 F       1  UNL1       -0.2021
@<TRIPOS>BOND
     1    21    22    1
     2    22    23   ar
     3    23    24   ar
     4    24    25   ar
     5    25    26   ar
     6    26    20    1
     7    20     1    1
     8     1     2    1
     9     2     3    1
    10     3     4    1
    11     4     7    1
    12     7     8   ar
    13     8     9   ar
    14     9    10   ar
    15    10    11   ar
    16    11    12   ar
    17    12    13   ar
    18    13    16    1
    19    16    17    1
    20    16    18    1
    21    16    19    1
    22    13    14   ar
    23    14    15   ar
    24     4     5    1
    25     5     6    1
    26    26    27   ar
    27    27    28    1
    28    27    22   ar
    29     6     1    1
    30    15     7   ar
    31    14    10   ar
@<TRIPOS>MOLECULE
*****
 28 31 0 0 0
SMALL
GASTEIGER

@<TRIPOS>ATOM
      1 N         142.3988  137.1803  157.3276 N.3     1  UNL1       -0.2659
      2 C         142.8972  137.5934  158.6808 C.3     1  UNL1        0.0941
      3 C         141.9827  138.3081  159.6309 C.3     1  UNL1        0.1096
      4 N         140.5696  138.6097  159.2279 N.pl3   1  UNL1       -0.2890
      5 C         140.0712  138.1967  157.8748 C.3     1  UNL1        0.1096
      6 C         140.9858  137.4819  156.9246 C.3     1  UNL1        0.0941
      7 C         139.6550  139.3245  160.1780 C.ar    1  UNL1        0.1521
      8 C         138.5876  138.5635  160.9070 C.ar    1  UNL1        0.0393
      9 C         137.6731  139.2782  161.8571 C.ar    1  UNL1        0.0436
     10 C         137.8260  140.7540  162.0782 C.ar    1  UNL1        0.1867
     11 N         137.0778  141.7216  162.9467 N.ar    1  UNL1       -0.1270
     12 N         137.6829  143.0806  162.7543 N.ar    1  UNL1       -0.1228
     13 C         138.8050  142.9528  161.7671 C.ar    1  UNL1        0.2583
     14 N         138.8934  141.5149  161.3492 N.ar    1  UNL1       -0.1866
     15 N         139.8079  140.8002  160.3991 N.ar    1  UNL1       -0.1473
     16 C         139.6843  144.0674  161.2827 C.3     1  UNL1        0.4541
     17 F         140.5637  145.1819  160.7983 F       1  UNL1       -0.1631
     18 F         140.1120  144.3432  162.6937 F       1  UNL1       -0.1631
     19 F         139.2566  143.7915  159.8716 F       1  UNL1       -0.1631
     20 C         143.3134  136.4656  156.3776 C.3     1  UNL1        0.1015
     21 F         142.7324  131.3931  157.3425 F       1  UNL1       -0.2018
     22 C         142.6812  132.5477  156.3864 C.ar    1  UNL1        0.1671
     23 C         142.2883  132.3207  154.9567 C.ar    1  UNL1        0.0319
     24 C         142.2371  133.4753  154.0006 C.ar    1  UNL1        0.0022
     25 C         142.5789  134.8570  154.4742 C.ar    1  UNL1       -0.0005
     26 C         142.9717  135.0840  155.9039 C.ar    1  UNL1        0.0236
     27 C         143.0229  133.9293  156.8601 C.ar    1  UNL1        0.1647
     28 F         143.4158  134.1563  158.2898 F       1  UNL1       -0.2021
@<TRIPOS>BOND
     1    21    22    1
     2    22    23   ar
     3    23    24   ar
     4    24    25   ar
     5    25    26   ar
     6    26    20    1
     7    20     1    1
     8     1     2    1
     9     2     3    1
    10     3     4    1
    11     4     7    1
    12     7     8   ar
    13     8     9   ar
    14     9    10   ar
    15    10    11   ar
    16    11    12   ar
    17    12    13   ar
    18    13    16    1
    19    16    17    1
    20    16    18    1
    21    16    19    1
    22    13    14   ar
    23    14    15   ar
    24     4     5    1
    25     5     6    1
    26    26    27   ar
    27    27    28    1
    28    27    22   ar
    29     6     1    1
    30    15     7   ar
    31    14    10   ar
