@<TRIPOS>MOLECULE
*****
 39 43 0 0 0
SMALL
GASTEIGER

@<TRIPOS>ATOM
      1 N         141.0616  138.7518  162.7599 N.ar    1  UNL1       -0.3063
      2 C         140.0238  139.6272  163.3977 C.ar    1  UNL1        0.1240
      3 C         139.5093  140.5726  162.3529 C.ar    1  UNL1        0.1156
      4 C         140.2290  140.2814  161.0696 C.ar    1  UNL1        0.0966
      5 C         141.1884  139.1561  161.3211 C.ar    1  UNL1        0.1349
      6 C         142.0535  138.6450  160.2073 C.ar    1  UNL1        0.2819
      7 O         143.0129  137.5197  160.4588 O.2     1  UNL1       -0.2652
      8 N         141.9593  139.2592  158.8421 N.ar    1  UNL1       -0.2400
      9 C         140.9999  140.3846  158.5906 C.ar    1  UNL1        0.3343
     10 O         140.9056  140.9988  157.2254 O.2     1  UNL1       -0.2462
     11 N         140.1347  140.8957  159.7043 N.ar    1  UNL1       -0.2770
     12 C         139.1754  142.0210  159.4528 C.3     1  UNL1        0.1351
     13 N         139.5787  139.5676  164.8289 N.pl3   1  UNL1       -0.2925
     14 C         140.2366  140.5460  165.7563 C.3     1  UNL1        0.0936
     15 C         140.0130  140.7360  167.2273 C.3     1  UNL1        0.0385
     16 C         139.0760  139.9946  168.1342 C.3     1  UNL1        0.0704
     17 N         138.1315  138.8801  167.7942 N.3     1  UNL1       -0.2960
     18 C         137.8905  138.2317  166.4632 C.3     1  UNL1        0.0903
     19 C         138.5346  138.5377  165.1435 C.3     1  UNL1        0.1092
     20 H         137.2153  139.2256  168.0797 H       1  UNL1        0.1233
     21 C         138.4593  141.6244  162.5560 C.1     1  UNL1        0.1047
     22 N         137.4093  142.6763  162.7590 N.1     1  UNL1       -0.1907
     23 C         141.8365  137.6631  163.4414 C.3     1  UNL1        0.1332
     24 C         143.4475  138.6003  166.9451 C.3     1  UNL1        0.0261
     25 C         143.2103  138.5385  165.4653 C.2     1  UNL1       -0.0460
     26 C         144.1099  139.2903  164.5296 C.3     1  UNL1        0.0261
     27 C         142.0737  137.7249  164.9212 C.2     1  UNL1       -0.0102
     28 C         142.8244  138.7481  157.7284 C.3     1  UNL1        0.1791
     29 C         142.4445  137.4937  156.9989 C.ar    1  UNL1        0.1617
     30 N         141.5060  137.5606  155.8307 N.ar    1  UNL1       -0.2330
     31 C         141.1261  136.3062  155.1011 C.ar    1  UNL1        0.0622
     32 C         140.1875  136.3731  153.9329 C.3     1  UNL1        0.0522
     33 C         141.6847  134.9850  155.5397 C.ar    1  UNL1        0.0313
     34 C         141.3048  133.7307  154.8101 C.ar    1  UNL1        0.0027
     35 C         141.8634  132.4095  155.2488 C.ar    1  UNL1        0.0001
     36 C         142.8019  132.3427  156.4170 C.ar    1  UNL1        0.0015
     37 C         143.1818  133.5970  157.1465 C.ar    1  UNL1        0.0192
     38 C         142.6232  134.9182  156.7079 C.ar    1  UNL1        0.0838
     39 N         143.0031  136.1726  157.4375 N.ar    1  UNL1       -0.2287
@<TRIPOS>BOND
     1    24    25    1
     2    25    26    1
     3    25    27    2
     4    27    23    1
     5    23     1    1
     6     1     2   ar
     7     2    13    1
     8    13    14    1
     9    14    15    1
    10    15    16    1
    11    16    17    1
    12    17    18    1
    13    18    19    1
    14     2     3   ar
    15     3    21    1
    16    21    22    3
    17     3     4   ar
    18     4     5   ar
    19     5     6   ar
    20     6     7    2
    21     6     8   ar
    22     8    28    1
    23    28    29    1
    24    29    30   ar
    25    30    31   ar
    26    31    32    1
    27    31    33   ar
    28    33    34   ar
    29    34    35   ar
    30    35    36   ar
    31    36    37   ar
    32    37    38   ar
    33    38    39   ar
    34     8     9   ar
    35     9    10    2
    36     9    11   ar
    37    11    12    1
    38     5     1   ar
    39    39    29   ar
    40    19    13    1
    41    11     4   ar
    42    38    33   ar
    43    17    20    1
@<TRIPOS>MOLECULE
*****
 39 43 0 0 0
SMALL
GASTEIGER

@<TRIPOS>ATOM
      1 N         143.6560  142.7437  159.8501 N.ar    1  UNL1       -0.3063
      2 C         143.7519  142.9868  158.3730 C.ar    1  UNL1        0.1240
      3 C         142.6947  143.9825  157.9975 C.ar    1  UNL1        0.1156
      4 C         141.9454  144.3547  159.2425 C.ar    1  UNL1        0.0966
      5 C         142.5395  143.5892  160.3874 C.ar    1  UNL1        0.1349
      6 C         141.9871  143.7608  161.7714 C.ar    1  UNL1        0.2819
      7 O         142.5812  142.9953  162.9164 O.2     1  UNL1       -0.2652
      8 N         140.8406  144.6980  162.0105 N.ar    1  UNL1       -0.2400
      9 C         140.2465  145.4636  160.8655 C.ar    1  UNL1        0.3343
     10 O         139.1000  146.4008  161.1045 O.2     1  UNL1       -0.2462
     11 N         140.7989  145.2919  159.4815 N.ar    1  UNL1       -0.2770
     12 C         140.2048  146.0575  158.3366 C.3     1  UNL1        0.1351
     13 N         144.7328  142.3466  157.4359 N.pl3   1  UNL1       -0.2925
     14 C         144.1787  141.2717  156.5485 C.3     1  UNL1        0.0936
     15 C         144.8929  140.4507  155.5162 C.3     1  UNL1        0.0385
     16 C         146.3378  140.5018  155.1163 C.3     1  UNL1        0.0704
     17 N         147.4251  141.3866  155.6500 N.3     1  UNL1       -0.2960
     18 C         147.3362  142.4387  156.7154 C.3     1  UNL1        0.0903
     19 C         146.1380  142.8660  157.5102 C.3     1  UNL1        0.1092
     20 H         147.7769  141.8817  154.8306 H       1  UNL1        0.1233
     21 C         142.4327  144.5127  156.6190 C.1     1  UNL1        0.1047
     22 N         142.1707  145.0431  155.2405 N.1     1  UNL1       -0.1907
     23 C         144.5241  141.8178  160.6495 C.3     1  UNL1        0.1332
     24 C         143.7935  138.6378  162.9086 C.3     1  UNL1        0.0261
     25 C         144.3266  139.9668  162.4618 C.2     1  UNL1       -0.0460
     26 C         145.1951  140.7738  163.3808 C.3     1  UNL1        0.0261
     27 C         143.9911  140.4888  161.0962 C.2     1  UNL1       -0.0102
     28 C         140.2882  144.8696  163.3944 C.3     1  UNL1        0.1791
     29 C         139.9724  143.6650  164.2306 C.ar    1  UNL1        0.1617
     30 N         139.1786  142.5340  163.6468 N.ar    1  UNL1       -0.2330
     31 C         138.8628  141.3294  164.4829 C.ar    1  UNL1        0.0622
     32 C         138.0690  140.1983  163.8991 C.3     1  UNL1        0.0522
     33 C         139.3406  141.2557  165.9029 C.ar    1  UNL1        0.0313
     34 C         139.0248  140.0511  166.7390 C.ar    1  UNL1        0.0027
     35 C         139.5026  139.9775  168.1589 C.ar    1  UNL1        0.0001
     36 C         140.2963  141.1085  168.7427 C.ar    1  UNL1        0.0015
     37 C         140.6122  142.3131  167.9066 C.ar    1  UNL1        0.0192
     38 C         140.1343  142.3867  166.4867 C.ar    1  UNL1        0.0838
     39 N         140.4502  143.5914  165.6505 N.ar    1  UNL1       -0.2287
@<TRIPOS>BOND
     1    24    25    1
     2    25    26    1
     3    25    27    2
     4    27    23    1
     5    23     1    1
     6     1     2   ar
     7     2    13    1
     8    13    14    1
     9    14    15    1
    10    15    16    1
    11    16    17    1
    12    17    18    1
    13    18    19    1
    14     2     3   ar
    15     3    21    1
    16    21    22    3
    17     3     4   ar
    18     4     5   ar
    19     5     6   ar
    20     6     7    2
    21     6     8   ar
    22     8    28    1
    23    28    29    1
    24    29    30   ar
    25    30    31   ar
    26    31    32    1
    27    31    33   ar
    28    33    34   ar
    29    34    35   ar
    30    35    36   ar
    31    36    37   ar
    32    37    38   ar
    33    38    39   ar
    34     8     9   ar
    35     9    10    2
    36     9    11   ar
    37    11    12    1
    38     5     1   ar
    39    39    29   ar
    40    19    13    1
    41    11     4   ar
    42    38    33   ar
    43    17    20    1
@<TRIPOS>MOLECULE
*****
 39 43 0 0 0
SMALL
GASTEIGER

@<TRIPOS>ATOM
      1 N         143.7945  142.8269  160.1230 N.ar    1  UNL1       -0.3063
      2 C         143.8458  142.9951  158.6334 C.ar    1  UNL1        0.1240
      3 C         142.7122  143.8901  158.2286 C.ar    1  UNL1        0.1156
      4 C         141.9603  144.2751  159.4681 C.ar    1  UNL1        0.0966
      5 C         142.6292  143.6180  160.6389 C.ar    1  UNL1        0.1349
      6 C         142.0907  143.8249  162.0236 C.ar    1  UNL1        0.2819
      7 O         142.7595  143.1678  163.1944 O.2     1  UNL1       -0.2652
      8 N         140.8833  144.6889  162.2374 N.ar    1  UNL1       -0.2400
      9 C         140.2144  145.3460  161.0666 C.ar    1  UNL1        0.3343
     10 O         139.0071  146.2100  161.2804 O.2     1  UNL1       -0.2462
     11 N         140.7529  145.1391  159.6819 N.ar    1  UNL1       -0.2770
     12 C         140.0840  145.7962  158.5111 C.3     1  UNL1        0.1351
     13 N         144.8538  142.3767  157.7105 N.pl3   1  UNL1       -0.2925
     14 C         146.1761  143.0799  157.6258 C.3     1  UNL1        0.0936
     15 C         147.3773  142.7171  156.8040 C.3     1  UNL1        0.0385
     16 C         147.5530  141.5614  155.8640 C.3     1  UNL1        0.0704
     17 N         146.5708  140.4833  155.5135 N.3     1  UNL1       -0.2960
     18 C         145.1704  140.2944  156.0166 C.3     1  UNL1        0.0903
     19 C         144.4062  141.1371  156.9943 C.3     1  UNL1        0.1092
     20 H         147.0482  139.6146  155.7545 H       1  UNL1        0.1233
     21 C         142.3875  144.3240  156.8300 C.1     1  UNL1        0.1047
     22 N         142.0627  144.7578  155.4312 N.1     1  UNL1       -0.1907
     23 C         144.7421  142.0109  160.9514 C.3     1  UNL1        0.1332
     24 C         144.2629  139.1561  163.6663 C.3     1  UNL1        0.0261
     25 C         144.7403  140.4119  162.9991 C.2     1  UNL1       -0.0460
     26 C         145.6934  141.3244  163.7125 C.3     1  UNL1        0.0261
     27 C         144.2647  140.7552  161.6186 C.2     1  UNL1       -0.0102
     28 C         140.3449  144.8958  163.6221 C.3     1  UNL1        0.1791
     29 C         140.1254  143.7184  164.5251 C.ar    1  UNL1        0.1617
     30 N         140.7076  143.7147  165.9076 N.ar    1  UNL1       -0.2330
     31 C         140.4881  142.5373  166.8106 C.ar    1  UNL1        0.0622
     32 C         141.0703  142.5337  168.1930 C.3     1  UNL1        0.0522
     33 C         139.6865  141.3636  166.3313 C.ar    1  UNL1        0.0313
     34 C         139.4670  140.1862  167.2344 C.ar    1  UNL1        0.0027
     35 C         138.6654  139.0125  166.7551 C.ar    1  UNL1        0.0001
     36 C         138.0832  139.0162  165.3727 C.ar    1  UNL1        0.0015
     37 C         138.3027  140.1935  164.4696 C.ar    1  UNL1        0.0192
     38 C         139.1043  141.3672  164.9489 C.ar    1  UNL1        0.0838
     39 N         139.3238  142.5447  164.0458 N.ar    1  UNL1       -0.2287
@<TRIPOS>BOND
     1    24    25    1
     2    25    26    1
     3    25    27    2
     4    27    23    1
     5    23     1    1
     6     1     2   ar
     7     2    13    1
     8    13    14    1
     9    14    15    1
    10    15    16    1
    11    16    17    1
    12    17    18    1
    13    18    19    1
    14     2     3   ar
    15     3    21    1
    16    21    22    3
    17     3     4   ar
    18     4     5   ar
    19     5     6   ar
    20     6     7    2
    21     6     8   ar
    22     8    28    1
    23    28    29    1
    24    29    30   ar
    25    30    31   ar
    26    31    32    1
    27    31    33   ar
    28    33    34   ar
    29    34    35   ar
    30    35    36   ar
    31    36    37   ar
    32    37    38   ar
    33    38    39   ar
    34     8     9   ar
    35     9    10    2
    36     9    11   ar
    37    11    12    1
    38     5     1   ar
    39    39    29   ar
    40    19    13    1
    41    11     4   ar
    42    38    33   ar
    43    17    20    1
@<TRIPOS>MOLECULE
*****
 39 43 0 0 0
SMALL
GASTEIGER

@<TRIPOS>ATOM
      1 N         142.1620  139.7817  161.2525 N.ar    1  UNL1       -0.3063
      2 C         141.1086  140.2451  162.2145 C.ar    1  UNL1        0.1240
      3 C         139.8143  140.3595  161.4649 C.ar    1  UNL1        0.1156
      4 C         140.0680  139.9668  160.0396 C.ar    1  UNL1        0.0966
      5 C         141.5189  139.6097  159.9083 C.ar    1  UNL1        0.1349
      6 C         142.0670  139.1741  158.5818 C.ar    1  UNL1        0.2819
      7 O         143.5179  138.8170  158.4505 O.2     1  UNL1       -0.2652
      8 N         141.1642  139.0955  157.3865 N.ar    1  UNL1       -0.2400
      9 C         139.7132  139.4526  157.5178 C.ar    1  UNL1        0.3343
     10 O         138.8104  139.3740  156.3225 O.2     1  UNL1       -0.2462
     11 N         139.1651  139.8882  158.8443 N.ar    1  UNL1       -0.2770
     12 C         137.7141  140.2453  158.9756 C.3     1  UNL1        0.1351
     13 N         141.3133  140.5420  163.6706 N.pl3   1  UNL1       -0.2925
     14 C         141.1654  139.3740  164.6000 C.3     1  UNL1        0.0936
     15 C         141.3066  139.3430  166.0930 C.3     1  UNL1        0.0385
     16 C         141.6305  140.4726  167.0253 C.3     1  UNL1        0.0704
     17 N         141.8933  141.9119  166.6949 N.3     1  UNL1       -0.2960
     18 C         141.8971  142.5772  165.3506 C.3     1  UNL1        0.0903
     19 C         141.6390  141.9676  164.0046 C.3     1  UNL1        0.1092
     20 H         142.8225  142.0954  167.0735 H       1  UNL1        0.1233
     21 C         138.4977  140.7908  162.0397 C.1     1  UNL1        0.1047
     22 N         137.1810  141.2221  162.6145 N.1     1  UNL1       -0.1907
     23 C         143.6052  139.5339  161.5775 C.3     1  UNL1        0.1332
     24 C         145.9281  141.7667  163.8945 C.3     1  UNL1        0.0261
     25 C         145.0601  140.6366  163.4261 C.2     1  UNL1       -0.0460
     26 C         144.7788  139.4793  164.3380 C.3     1  UNL1        0.0261
     27 C         144.4733  140.6639  162.0460 C.2     1  UNL1       -0.0102
     28 C         141.7123  138.6599  156.0599 C.3     1  UNL1        0.1791
     29 C         141.7570  137.2021  155.7091 C.ar    1  UNL1        0.1617
     30 N         141.1709  136.7242  154.4137 N.ar    1  UNL1       -0.2330
     31 C         141.2156  135.2665  154.0628 C.ar    1  UNL1        0.0622
     32 C         140.6294  134.7886  152.7674 C.3     1  UNL1        0.0522
     33 C         141.8464  134.2867  155.0073 C.ar    1  UNL1        0.0313
     34 C         141.8911  132.8290  154.6564 C.ar    1  UNL1        0.0027
     35 C         142.5219  131.8493  155.6009 C.ar    1  UNL1        0.0001
     36 C         143.1080  132.3272  156.8963 C.ar    1  UNL1        0.0015
     37 C         143.0633  133.7849  157.2472 C.ar    1  UNL1        0.0192
     38 C         142.4325  134.7646  156.3027 C.ar    1  UNL1        0.0838
     39 N         142.3878  136.2224  156.6536 N.ar    1  UNL1       -0.2287
@<TRIPOS>BOND
     1    24    25    1
     2    25    26    1
     3    25    27    2
     4    27    23    1
     5    23     1    1
     6     1     2   ar
     7     2    13    1
     8    13    14    1
     9    14    15    1
    10    15    16    1
    11    16    17    1
    12    17    18    1
    13    18    19    1
    14     2     3   ar
    15     3    21    1
    16    21    22    3
    17     3     4   ar
    18     4     5   ar
    19     5     6   ar
    20     6     7    2
    21     6     8   ar
    22     8    28    1
    23    28    29    1
    24    29    30   ar
    25    30    31   ar
    26    31    32    1
    27    31    33   ar
    28    33    34   ar
    29    34    35   ar
    30    35    36   ar
    31    36    37   ar
    32    37    38   ar
    33    38    39   ar
    34     8     9   ar
    35     9    10    2
    36     9    11   ar
    37    11    12    1
    38     5     1   ar
    39    39    29   ar
    40    19    13    1
    41    11     4   ar
    42    38    33   ar
    43    17    20    1
@<TRIPOS>MOLECULE
*****
 39 43 0 0 0
SMALL
GASTEIGER

@<TRIPOS>ATOM
      1 N         140.2119  142.1574  164.9374 N.ar    1  UNL1       -0.3063
      2 C         141.3787  142.3875  165.8515 C.ar    1  UNL1        0.1240
      3 C         142.4717  143.0351  165.0539 C.ar    1  UNL1        0.1156
      4 C         141.9803  143.2052  163.6469 C.ar    1  UNL1        0.0966
      5 C         140.5837  142.6627  163.5749 C.ar    1  UNL1        0.1349
      6 C         139.8309  142.6990  162.2780 C.ar    1  UNL1        0.2819
      7 O         138.4344  142.1565  162.2060 O.2     1  UNL1       -0.2652
      8 N         140.4748  143.2777  161.0530 N.ar    1  UNL1       -0.2400
      9 C         141.8714  143.8202  161.1250 C.ar    1  UNL1        0.3343
     10 O         142.5153  144.3989  159.9001 O.2     1  UNL1       -0.2462
     11 N         142.6242  143.7840  162.4219 N.ar    1  UNL1       -0.2770
     12 C         144.0208  144.3264  162.4940 C.3     1  UNL1        0.1351
     13 N         141.4416  142.0325  167.3075 N.pl3   1  UNL1       -0.2925
     14 C         140.6378  142.9050  168.2255 C.3     1  UNL1        0.0936
     15 C         140.4938  142.8124  169.7156 C.3     1  UNL1        0.0385
     16 C         141.1182  141.8244  170.6559 C.3     1  UNL1        0.0704
     17 N         142.0406  140.6850  170.3383 N.3     1  UNL1       -0.2960
     18 C         142.5665  140.2522  169.0019 C.3     1  UNL1        0.0903
     19 C         142.3000  140.8519  167.6530 C.3     1  UNL1        0.1092
     20 H         141.5641  139.8608  170.7045 H       1  UNL1        0.1233
     21 C         143.8193  143.4414  165.5723 C.1     1  UNL1        0.1047
     22 N         145.1671  143.8477  166.0907 N.1     1  UNL1       -0.1907
     23 C         138.9031  141.5317  165.3188 C.3     1  UNL1        0.1332
     24 C         138.3575  137.6361  165.8450 C.3     1  UNL1        0.0261
     25 C         138.6109  139.0846  166.1412 C.2     1  UNL1       -0.0460
     26 C         138.8256  139.5344  167.5560 C.3     1  UNL1        0.0261
     27 C         138.6497  140.0832  165.0227 C.2     1  UNL1       -0.0102
     28 C         139.7220  143.3139  159.7561 C.3     1  UNL1        0.1791
     29 C         139.6670  142.0929  158.8865 C.ar    1  UNL1        0.1617
     30 N         138.5554  141.9295  157.8926 N.ar    1  UNL1       -0.2330
     31 C         138.5004  140.7086  157.0230 C.ar    1  UNL1        0.0622
     32 C         137.3888  140.5451  156.0292 C.3     1  UNL1        0.0522
     33 C         139.5569  139.6510  157.1473 C.ar    1  UNL1        0.0313
     34 C         139.5018  138.4300  156.2777 C.ar    1  UNL1        0.0027
     35 C         140.5583  137.3725  156.4019 C.ar    1  UNL1        0.0001
     36 C         141.6698  137.5360  157.3958 C.ar    1  UNL1        0.0015
     37 C         141.7249  138.7569  158.2654 C.ar    1  UNL1        0.0192
     38 C         140.6684  139.8144  158.1411 C.ar    1  UNL1        0.0838
     39 N         140.7235  141.0354  159.0107 N.ar    1  UNL1       -0.2287
@<TRIPOS>BOND
     1    24    25    1
     2    25    26    1
     3    25    27    2
     4    27    23    1
     5    23     1    1
     6     1     2   ar
     7     2    13    1
     8    13    14    1
     9    14    15    1
    10    15    16    1
    11    16    17    1
    12    17    18    1
    13    18    19    1
    14     2     3   ar
    15     3    21    1
    16    21    22    3
    17     3     4   ar
    18     4     5   ar
    19     5     6   ar
    20     6     7    2
    21     6     8   ar
    22     8    28    1
    23    28    29    1
    24    29    30   ar
    25    30    31   ar
    26    31    32    1
    27    31    33   ar
    28    33    34   ar
    29    34    35   ar
    30    35    36   ar
    31    36    37   ar
    32    37    38   ar
    33    38    39   ar
    34     8     9   ar
    35     9    10    2
    36     9    11   ar
    37    11    12    1
    38     5     1   ar
    39    39    29   ar
    40    19    13    1
    41    11     4   ar
    42    38    33   ar
    43    17    20    1
@<TRIPOS>MOLECULE
*****
 39 43 0 0 0
SMALL
GASTEIGER

@<TRIPOS>ATOM
      1 N         141.1775  140.7406  164.1855 N.ar    1  UNL1       -0.3063
      2 C         142.0242  141.3481  165.2644 C.ar    1  UNL1        0.1240
      3 C         142.9769  142.3105  164.6193 C.ar    1  UNL1        0.1156
      4 C         142.7189  142.2978  163.1417 C.ar    1  UNL1        0.0966
      5 C         141.6069  141.3276  162.8736 C.ar    1  UNL1        0.1349
      6 C         141.1289  141.1039  161.4695 C.ar    1  UNL1        0.2819
      7 O         140.0168  140.1337  161.2014 O.2     1  UNL1       -0.2652
      8 N         141.7630  141.8504  160.3335 N.ar    1  UNL1       -0.2400
      9 C         142.8752  142.8207  160.6016 C.ar    1  UNL1        0.3343
     10 O         143.5093  143.5673  159.4656 O.2     1  UNL1       -0.2462
     11 N         143.3531  143.0444  162.0057 N.ar    1  UNL1       -0.2770
     12 C         144.4652  144.0146  162.2738 C.3     1  UNL1        0.1351
     13 N         141.9340  141.0462  166.7310 N.pl3   1  UNL1       -0.2925
     14 C         142.5798  139.7665  167.1729 C.3     1  UNL1        0.0936
     15 C         142.6611  139.1884  168.5546 C.3     1  UNL1        0.0385
     16 C         142.1166  139.7473  169.8357 C.3     1  UNL1        0.0704
     17 N         141.3565  141.0223  170.0515 N.3     1  UNL1       -0.2960
     18 C         140.9531  142.0533  169.0395 C.3     1  UNL1        0.0903
     19 C         141.2101  142.0640  167.5616 C.3     1  UNL1        0.1092
     20 H         141.9114  141.5381  170.7345 H       1  UNL1        0.1233
     21 C         144.0067  143.1400  165.3274 C.1     1  UNL1        0.1047
     22 N         145.0365  143.9694  166.0357 N.1     1  UNL1       -0.1907
     23 C         140.0919  139.7246  164.3837 C.3     1  UNL1        0.1332
     24 C         137.5833  138.6773  167.2750 C.3     1  UNL1        0.0261
     25 C         138.4848  138.5882  166.0794 C.2     1  UNL1       -0.0460
     26 C         138.6804  137.2736  165.3840 C.3     1  UNL1        0.0261
     27 C         139.1905  139.8137  165.5793 C.2     1  UNL1       -0.0102
     28 C         141.2851  141.6268  158.9294 C.3     1  UNL1        0.1791
     29 C         142.0442  140.7108  158.0157 C.ar    1  UNL1        0.1617
     30 N         142.9085  141.2812  156.9305 N.ar    1  UNL1       -0.2330
     31 C         143.6675  140.3653  156.0169 C.ar    1  UNL1        0.0622
     32 C         144.5318  140.9358  154.9317 C.3     1  UNL1        0.0522
     33 C         143.5623  138.8788  156.1883 C.ar    1  UNL1        0.0313
     34 C         144.3214  137.9629  155.2747 C.ar    1  UNL1        0.0027
     35 C         144.2161  136.4765  155.4461 C.ar    1  UNL1        0.0001
     36 C         143.3518  135.9060  156.5313 C.ar    1  UNL1        0.0015
     37 C         142.5928  136.8219  157.4449 C.ar    1  UNL1        0.0192
     38 C         142.6980  138.3083  157.2735 C.ar    1  UNL1        0.0838
     39 N         141.9389  139.2243  158.1872 N.ar    1  UNL1       -0.2287
@<TRIPOS>BOND
     1    24    25    1
     2    25    26    1
     3    25    27    2
     4    27    23    1
     5    23     1    1
     6     1     2   ar
     7     2    13    1
     8    13    14    1
     9    14    15    1
    10    15    16    1
    11    16    17    1
    12    17    18    1
    13    18    19    1
    14     2     3   ar
    15     3    21    1
    16    21    22    3
    17     3     4   ar
    18     4     5   ar
    19     5     6   ar
    20     6     7    2
    21     6     8   ar
    22     8    28    1
    23    28    29    1
    24    29    30   ar
    25    30    31   ar
    26    31    32    1
    27    31    33   ar
    28    33    34   ar
    29    34    35   ar
    30    35    36   ar
    31    36    37   ar
    32    37    38   ar
    33    38    39   ar
    34     8     9   ar
    35     9    10    2
    36     9    11   ar
    37    11    12    1
    38     5     1   ar
    39    39    29   ar
    40    19    13    1
    41    11     4   ar
    42    38    33   ar
    43    17    20    1
@<TRIPOS>MOLECULE
*****
 39 43 0 0 0
SMALL
GASTEIGER

@<TRIPOS>ATOM
      1 N         142.3746  141.4274  164.7261 N.ar    1  UNL1       -0.3063
      2 C         141.2868  142.0834  165.5238 C.ar    1  UNL1        0.1240
      3 C         140.7409  143.2223  164.7145 C.ar    1  UNL1        0.1156
      4 C         141.4913  143.2700  163.4166 C.ar    1  UNL1        0.0966
      5 C         142.5010  142.1608  163.4238 C.ar    1  UNL1        0.1349
      6 C         143.4050  141.9619  162.2434 C.ar    1  UNL1        0.2819
      7 O         144.4147  140.8526  162.2506 O.2     1  UNL1       -0.2652
      8 N         143.2994  142.8722  161.0560 N.ar    1  UNL1       -0.2400
      9 C         142.2897  143.9815  161.0488 C.ar    1  UNL1        0.3343
     10 O         142.1841  144.8918  159.8613 O.2     1  UNL1       -0.2462
     11 N         141.3857  144.1804  162.2291 N.ar    1  UNL1       -0.2770
     12 C         140.3760  145.2897  162.2219 C.3     1  UNL1        0.1351
     13 N         140.8258  141.6727  166.8909 N.pl3   1  UNL1       -0.2925
     14 C         139.8138  140.5662  166.9314 C.3     1  UNL1        0.0936
     15 C         139.1638  139.9365  168.1275 C.3     1  UNL1        0.0385
     16 C         139.3654  140.2578  169.5789 C.3     1  UNL1        0.0704
     17 N         140.2666  141.2880  170.1923 N.3     1  UNL1       -0.2960
     18 C         141.1889  142.2515  169.5060 C.3     1  UNL1        0.0903
     19 C         141.4378  142.4227  168.0367 C.3     1  UNL1        0.1092
     20 H         140.8716  140.7576  170.8192 H       1  UNL1        0.1233
     21 C         139.6382  144.1503  165.1301 C.1     1  UNL1        0.1047
     22 N         138.5355  145.0784  165.5458 N.1     1  UNL1       -0.1907
     23 C         143.1924  140.2455  165.1553 C.3     1  UNL1        0.1332
     24 C         141.2142  136.8425  164.6490 C.3     1  UNL1        0.0261
     25 C         141.8855  138.1499  164.3488 C.2     1  UNL1       -0.0460
     26 C         141.9213  138.6690  162.9419 C.3     1  UNL1        0.0261
     27 C         142.5211  138.9381  165.4555 C.2     1  UNL1       -0.0102
     28 C         144.2034  142.6732  159.8757 C.3     1  UNL1        0.1791
     29 C         143.8930  141.6101  158.8639 C.ar    1  UNL1        0.1617
     30 N         144.7975  141.4106  157.6841 N.ar    1  UNL1       -0.2330
     31 C         144.4871  140.3476  156.6724 C.ar    1  UNL1        0.0622
     32 C         145.3917  140.1480  155.4926 C.3     1  UNL1        0.0522
     33 C         143.2722  139.4840  156.8405 C.ar    1  UNL1        0.0313
     34 C         142.9618  138.4210  155.8288 C.ar    1  UNL1        0.0027
     35 C         141.7469  137.5575  155.9970 C.ar    1  UNL1        0.0001
     36 C         140.8424  137.7570  157.1768 C.ar    1  UNL1        0.0015
     37 C         141.1527  138.8200  158.1885 C.ar    1  UNL1        0.0192
     38 C         142.3676  139.6835  158.0203 C.ar    1  UNL1        0.0838
     39 N         142.6781  140.7466  159.0321 N.ar    1  UNL1       -0.2287
@<TRIPOS>BOND
     1    24    25    1
     2    25    26    1
     3    25    27    2
     4    27    23    1
     5    23     1    1
     6     1     2   ar
     7     2    13    1
     8    13    14    1
     9    14    15    1
    10    15    16    1
    11    16    17    1
    12    17    18    1
    13    18    19    1
    14     2     3   ar
    15     3    21    1
    16    21    22    3
    17     3     4   ar
    18     4     5   ar
    19     5     6   ar
    20     6     7    2
    21     6     8   ar
    22     8    28    1
    23    28    29    1
    24    29    30   ar
    25    30    31   ar
    26    31    32    1
    27    31    33   ar
    28    33    34   ar
    29    34    35   ar
    30    35    36   ar
    31    36    37   ar
    32    37    38   ar
    33    38    39   ar
    34     8     9   ar
    35     9    10    2
    36     9    11   ar
    37    11    12    1
    38     5     1   ar
    39    39    29   ar
    40    19    13    1
    41    11     4   ar
    42    38    33   ar
    43    17    20    1
@<TRIPOS>MOLECULE
*****
 39 43 0 0 0
SMALL
GASTEIGER

@<TRIPOS>ATOM
      1 N         140.5929  139.7023  160.8679 N.ar    1  UNL1       -0.3063
      2 C         141.5064  140.6782  161.5484 C.ar    1  UNL1        0.1240
      3 C         142.6380  140.9840  160.6124 C.ar    1  UNL1        0.1156
      4 C         142.4237  140.1971  159.3535 C.ar    1  UNL1        0.0966
      5 C         141.1598  139.4050  159.5114 C.ar    1  UNL1        0.1349
      6 C         140.6885  138.5153  158.3995 C.ar    1  UNL1        0.2819
      7 O         139.4245  137.7232  158.5574 O.2     1  UNL1       -0.2652
      8 N         141.4810  138.4178  157.1298 N.ar    1  UNL1       -0.2400
      9 C         142.7450  139.2099  156.9718 C.ar    1  UNL1        0.3343
     10 O         143.5375  139.1124  155.7021 O.2     1  UNL1       -0.2462
     11 N         143.2164  140.0996  158.0837 N.ar    1  UNL1       -0.2770
     12 C         144.4803  140.8918  157.9258 C.3     1  UNL1        0.1351
     13 N         141.3210  141.2482  162.9235 N.pl3   1  UNL1       -0.2925
     14 C         141.9513  140.4707  164.0407 C.3     1  UNL1        0.0936
     15 C         141.9461  140.7731  165.5099 C.3     1  UNL1        0.0385
     16 C         141.3093  141.9280  166.2246 C.3     1  UNL1        0.0704
     17 N         140.5204  143.0654  165.6468 N.3     1  UNL1       -0.2960
     18 C         140.1735  143.3290  164.2115 C.3     1  UNL1        0.0903
     19 C         140.5298  142.5202  162.9994 C.3     1  UNL1        0.1092
     20 H         141.0213  143.9020  165.9464 H       1  UNL1        0.1233
     21 C         143.7828  141.9135  160.8871 C.1     1  UNL1        0.1047
     22 N         144.9276  142.8431  161.1619 N.1     1  UNL1       -0.1907
     23 C         139.3335  139.1250  161.4430 C.3     1  UNL1        0.1332
     24 C         138.9436  137.5823  165.0786 C.3     1  UNL1        0.0261
     25 C         138.8711  138.5488  163.9338 C.2     1  UNL1       -0.0460
     26 C         138.2637  139.9055  164.1349 C.3     1  UNL1        0.0261
     27 C         139.4060  138.1586  162.5878 C.2     1  UNL1       -0.0102
     28 C         141.0096  137.5281  156.0179 C.3     1  UNL1        0.1791
     29 C         141.6692  136.2004  155.7888 C.ar    1  UNL1        0.1617
     30 N         141.4526  135.4682  154.4977 N.ar    1  UNL1       -0.2330
     31 C         142.1121  134.1406  154.2686 C.ar    1  UNL1        0.0622
     32 C         141.8955  133.4084  152.9775 C.3     1  UNL1        0.0522
     33 C         142.9882  133.5451  155.3307 C.ar    1  UNL1        0.0313
     34 C         143.6477  132.2175  155.1016 C.ar    1  UNL1        0.0027
     35 C         144.5237  131.6221  156.1637 C.ar    1  UNL1        0.0001
     36 C         144.7403  132.3543  157.4548 C.ar    1  UNL1        0.0015
     37 C         144.0808  133.6819  157.6839 C.ar    1  UNL1        0.0192
     38 C         143.2048  134.2773  156.6218 C.ar    1  UNL1        0.0838
     39 N         142.5452  135.6050  156.8509 N.ar    1  UNL1       -0.2287
@<TRIPOS>BOND
     1    24    25    1
     2    25    26    1
     3    25    27    2
     4    27    23    1
     5    23     1    1
     6     1     2   ar
     7     2    13    1
     8    13    14    1
     9    14    15    1
    10    15    16    1
    11    16    17    1
    12    17    18    1
    13    18    19    1
    14     2     3   ar
    15     3    21    1
    16    21    22    3
    17     3     4   ar
    18     4     5   ar
    19     5     6   ar
    20     6     7    2
    21     6     8   ar
    22     8    28    1
    23    28    29    1
    24    29    30   ar
    25    30    31   ar
    26    31    32    1
    27    31    33   ar
    28    33    34   ar
    29    34    35   ar
    30    35    36   ar
    31    36    37   ar
    32    37    38   ar
    33    38    39   ar
    34     8     9   ar
    35     9    10    2
    36     9    11   ar
    37    11    12    1
    38     5     1   ar
    39    39    29   ar
    40    19    13    1
    41    11     4   ar
    42    38    33   ar
    43    17    20    1
@<TRIPOS>MOLECULE
*****
 39 43 0 0 0
SMALL
GASTEIGER

@<TRIPOS>ATOM
      1 N         140.8681  139.2227  159.5089 N.ar    1  UNL1       -0.3063
      2 C         139.6190  140.0490  159.4257 C.ar    1  UNL1        0.1240
      3 C         139.0746  139.9274  158.0333 C.ar    1  UNL1        0.1156
      4 C         139.9873  139.0259  157.2559 C.ar    1  UNL1        0.0966
      5 C         141.0957  138.5904  158.1679 C.ar    1  UNL1        0.1349
      6 C         142.1691  137.6743  157.6593 C.ar    1  UNL1        0.2819
      7 O         143.2776  137.2388  158.5712 O.2     1  UNL1       -0.2652
      8 N         142.1340  137.1937  156.2389 N.ar    1  UNL1       -0.2400
      9 C         141.0255  137.6292  155.3269 C.ar    1  UNL1        0.3343
     10 O         140.9905  137.1486  153.9064 O.2     1  UNL1       -0.2462
     11 N         139.9522  138.5453  155.8354 N.ar    1  UNL1       -0.2770
     12 C         138.8437  138.9808  154.9235 C.3     1  UNL1        0.1351
     13 N         139.0195  140.8555  160.5395 N.pl3   1  UNL1       -0.2925
     14 C         139.2840  142.3311  160.4899 C.3     1  UNL1        0.0936
     15 C         138.8292  143.3954  161.4440 C.3     1  UNL1        0.0385
     16 C         137.9974  143.2468  162.6835 C.3     1  UNL1        0.0704
     17 N         137.4151  141.9973  163.2748 N.3     1  UNL1       -0.2960
     18 C         137.5208  140.5878  162.7728 C.3     1  UNL1        0.0903
     19 C         138.2348  140.0796  161.5554 C.3     1  UNL1        0.1092
     20 H         136.4123  142.1786  163.3184 H       1  UNL1        0.1233
     21 C         137.8351  140.5907  157.5101 C.1     1  UNL1        0.1047
     22 N         136.5956  141.2541  156.9870 N.1     1  UNL1       -0.1907
     23 C         141.7371  139.0577  160.7203 C.3     1  UNL1        0.1332
     24 C         141.0504  137.1390  164.1257 C.3     1  UNL1        0.0261
     25 C         141.3212  138.2492  163.1541 C.2     1  UNL1       -0.0460
     26 C         141.4469  139.6611  163.6447 C.3     1  UNL1        0.0261
     27 C         141.4663  137.9475  161.6919 C.2     1  UNL1       -0.0102
     28 C         143.2074  136.2776  155.7303 C.3     1  UNL1        0.1791
     29 C         143.0976  134.7980  155.9517 C.ar    1  UNL1        0.1617
     30 N         142.0015  134.0195  155.2866 N.ar    1  UNL1       -0.2330
     31 C         141.8917  132.5400  155.5080 C.ar    1  UNL1        0.0622
     32 C         140.7955  131.7615  154.8429 C.3     1  UNL1        0.0522
     33 C         142.8780  131.8390  156.3944 C.ar    1  UNL1        0.0313
     34 C         142.7682  130.3595  156.6158 C.ar    1  UNL1        0.0027
     35 C         143.7546  129.6586  157.5022 C.ar    1  UNL1        0.0001
     36 C         144.8507  130.4372  158.1673 C.ar    1  UNL1        0.0015
     37 C         144.9605  131.9166  157.9459 C.ar    1  UNL1        0.0192
     38 C         143.9742  132.6176  157.0595 C.ar    1  UNL1        0.0838
     39 N         144.0840  134.0971  156.8381 N.ar    1  UNL1       -0.2287
@<TRIPOS>BOND
     1    24    25    1
     2    25    26    1
     3    25    27    2
     4    27    23    1
     5    23     1    1
     6     1     2   ar
     7     2    13    1
     8    13    14    1
     9    14    15    1
    10    15    16    1
    11    16    17    1
    12    17    18    1
    13    18    19    1
    14     2     3   ar
    15     3    21    1
    16    21    22    3
    17     3     4   ar
    18     4     5   ar
    19     5     6   ar
    20     6     7    2
    21     6     8   ar
    22     8    28    1
    23    28    29    1
    24    29    30   ar
    25    30    31   ar
    26    31    32    1
    27    31    33   ar
    28    33    34   ar
    29    34    35   ar
    30    35    36   ar
    31    36    37   ar
    32    37    38   ar
    33    38    39   ar
    34     8     9   ar
    35     9    10    2
    36     9    11   ar
    37    11    12    1
    38     5     1   ar
    39    39    29   ar
    40    19    13    1
    41    11     4   ar
    42    38    33   ar
    43    17    20    1
