@<TRIPOS>MOLECULE
*****
 35 39 0 0 0
SMALL
GASTEIGER

@<TRIPOS>ATOM
      1 N         140.7399  142.8328  162.8812 N.am    1  UNL1       -0.2761
      2 C         141.2499  143.6665  164.0190 C.3     1  UNL1        0.0985
      3 C         141.0375  143.2151  165.4336 C.3     1  UNL1        0.0507
      4 C         140.3151  141.9300  165.7104 C.ar    1  UNL1        0.0153
      5 C         139.8050  141.0963  164.5725 C.ar    1  UNL1        0.1335
      6 N         139.0826  139.8112  164.8493 N.ar    1  UNL1       -0.2190
      7 C         138.8702  139.3598  166.2639 C.ar    1  UNL1        0.2349
      8 N         139.3802  140.1936  167.4018 N.ar    1  UNL1       -0.2280
      9 C         140.1027  141.4787  167.1251 C.ar    1  UNL1        0.0579
     10 C         140.0174  141.5477  163.1580 C.2     1  UNL1        0.2665
     11 O         139.5074  140.7139  162.0200 O.2     1  UNL1       -0.2683
     12 C         141.3770  144.1868  158.6372 C.3     1  UNL1        0.0333
     13 C         140.0062  144.2409  159.2440 C.3     1  UNL1        0.0071
     14 C         139.7939  143.7896  160.6586 C.3     1  UNL1        0.0202
     15 C         140.9523  143.2841  161.4665 C.3     1  UNL1        0.0757
     16 C         142.3230  143.2300  160.8598 C.3     1  UNL1        0.0202
     17 C         142.5354  143.6814  159.4451 C.3     1  UNL1        0.0071
     18 C         140.6011  144.7402  157.4789 C.ar    1  UNL1       -0.0207
     19 C         140.2820  143.8650  156.3033 C.ar    1  UNL1       -0.0042
     20 C         139.5061  144.4184  155.1449 C.ar    1  UNL1        0.0005
     21 C         139.0492  145.8470  155.1623 C.ar    1  UNL1        0.0114
     22 C         139.3683  146.7222  156.3380 C.ar    1  UNL1        0.0574
     23 CL        138.9114  148.1508  156.3553 Cl      1  UNL1       -0.0823
     24 C         140.1442  146.1688  157.4963 C.ar    1  UNL1        0.0072
     25 N         143.7213  143.4952  157.7564 N.3     1  UNL1       -0.3209
     26 C         142.4783  144.3249  157.6282 C.3     1  UNL1        0.0691
     27 H         144.3582  143.7165  156.9911 H       1  UNL1        0.1189
     28 H         143.4753  142.5061  157.7188 H       1  UNL1        0.1189
     29 C         138.1477  138.0747  166.5407 C.3     1  UNL1        0.4523
     30 F         137.4253  136.7896  166.8174 F       1  UNL1       -0.1632
     31 F         137.4316  138.7243  167.6875 F       1  UNL1       -0.1632
     32 F         138.8639  137.4252  165.3938 F       1  UNL1       -0.1632
     33 C         140.6127  142.3124  168.2629 C.3     1  UNL1        0.0401
     34 C         141.7185  142.6888  169.2039 C.3     1  UNL1        0.0063
     35 C         140.3904  143.3802  169.2927 C.3     1  UNL1        0.0063
@<TRIPOS>BOND
     1    25    26    1
     2    12    26    1
     3    12    18    1
     4    18    19   ar
     5    19    20   ar
     6    20    21   ar
     7    21    22   ar
     8    22    23    1
     9    22    24   ar
    10    12    13    1
    11    13    14    1
    12    14    15    1
    13    15     1    1
    14     1     2    1
    15     2     3    1
    16     3     4    1
    17     4     5   ar
    18     5     6   ar
    19     6     7   ar
    20     7    29    1
    21    29    30    1
    22    29    31    1
    23    29    32    1
    24     7     8   ar
    25     8     9   ar
    26     9    33    1
    27    33    34    1
    28    34    35    1
    29     5    10    1
    30    10    11    2
    31    15    16    1
    32    16    17    1
    33    17    12    1
    34    24    18   ar
    35    10     1   am
    36     9     4   ar
    37    35    33    1
    38    25    27    1
    39    25    28    1
@<TRIPOS>MOLECULE
*****
 35 39 0 0 0
SMALL
GASTEIGER

@<TRIPOS>ATOM
      1 N         141.7043  142.0822  162.9592 N.am    1  UNL1       -0.2761
      2 C         142.1437  143.0000  164.0613 C.3     1  UNL1        0.0985
      3 C         141.6750  142.7630  165.4663 C.3     1  UNL1        0.0507
      4 C         140.7670  141.6081  165.7693 C.ar    1  UNL1        0.0153
      5 C         140.3277  140.6903  164.6672 C.ar    1  UNL1        0.1335
      6 N         139.4197  139.5354  164.9702 N.ar    1  UNL1       -0.2190
      7 C         138.9511  139.2983  166.3752 C.ar    1  UNL1        0.2349
      8 N         139.3904  140.2162  167.4774 N.ar    1  UNL1       -0.2280
      9 C         140.2984  141.3711  167.1744 C.ar    1  UNL1        0.0579
     10 C         140.7964  140.9273  163.2622 C.2     1  UNL1        0.2665
     11 O         140.3570  140.0094  162.1601 O.2     1  UNL1       -0.2683
     12 C         143.1103  142.7932  158.7440 C.3     1  UNL1        0.0333
     13 C         143.6560  141.6394  159.5321 C.3     1  UNL1        0.0071
     14 C         143.1874  141.4025  160.9372 C.3     1  UNL1        0.0202
     15 C         142.1730  142.3192  161.5541 C.3     1  UNL1        0.0757
     16 C         141.6273  143.4729  160.7661 C.3     1  UNL1        0.0202
     17 C         142.0960  143.7100  159.3609 C.3     1  UNL1        0.0071
     18 C         144.0483  142.2064  157.7312 C.ar    1  UNL1       -0.0207
     19 C         143.5483  141.1934  156.7443 C.ar    1  UNL1       -0.0042
     20 C         144.4863  140.6066  155.7315 C.ar    1  UNL1        0.0005
     21 C         145.9243  141.0327  155.7056 C.ar    1  UNL1        0.0114
     22 C         146.4242  142.0456  156.6925 C.ar    1  UNL1        0.0574
     23 CL        147.8622  142.4717  156.6665 Cl      1  UNL1       -0.0823
     24 C         145.4863  142.6325  157.7053 C.ar    1  UNL1        0.0072
     25 N         142.7254  145.2099  157.8714 N.3     1  UNL1       -0.3209
     26 C         142.8904  143.7432  157.6042 C.3     1  UNL1        0.0691
     27 H         142.5863  145.7026  156.9892 H       1  UNL1        0.1189
     28 H         143.5620  145.5676  158.3324 H       1  UNL1        0.1189
     29 C         138.0431  138.1434  166.6782 C.3     1  UNL1        0.4523
     30 F         137.1351  136.9886  166.9812 F       1  UNL1       -0.1632
     31 F         137.4446  138.9131  167.8182 F       1  UNL1       -0.1632
     32 F         138.6416  137.3738  165.5383 F       1  UNL1       -0.1632
     33 C         140.7377  142.2889  168.2764 C.3     1  UNL1        0.0401
     34 C         140.4399  143.4039  169.2346 C.3     1  UNL1        0.0063
     35 C         141.7964  142.7637  169.2270 C.3     1  UNL1        0.0063
@<TRIPOS>BOND
     1    25    26    1
     2    12    26    1
     3    12    18    1
     4    18    19   ar
     5    19    20   ar
     6    20    21   ar
     7    21    22   ar
     8    22    23    1
     9    22    24   ar
    10    12    13    1
    11    13    14    1
    12    14    15    1
    13    15     1    1
    14     1     2    1
    15     2     3    1
    16     3     4    1
    17     4     5   ar
    18     5     6   ar
    19     6     7   ar
    20     7    29    1
    21    29    30    1
    22    29    31    1
    23    29    32    1
    24     7     8   ar
    25     8     9   ar
    26     9    33    1
    27    33    34    1
    28    34    35    1
    29     5    10    1
    30    10    11    2
    31    15    16    1
    32    16    17    1
    33    17    12    1
    34    24    18   ar
    35    10     1   am
    36     9     4   ar
    37    35    33    1
    38    25    27    1
    39    25    28    1
@<TRIPOS>MOLECULE
*****
 35 39 0 0 0
SMALL
GASTEIGER

@<TRIPOS>ATOM
      1 N         140.6576  142.6029  162.7737 N.am    1  UNL1       -0.2761
      2 C         141.1923  143.4579  163.8841 C.3     1  UNL1        0.0985
      3 C         140.9975  143.0412  165.3118 C.3     1  UNL1        0.0507
      4 C         140.2680  141.7696  165.6292 C.ar    1  UNL1        0.0153
      5 C         139.7333  140.9146  164.5188 C.ar    1  UNL1        0.1335
      6 N         139.0038  139.6429  164.8361 N.ar    1  UNL1       -0.2190
      7 C         138.8090  139.2263  166.2638 C.ar    1  UNL1        0.2349
      8 N         139.3437  140.0813  167.3743 N.ar    1  UNL1       -0.2280
      9 C         140.0732  141.3530  167.0570 C.ar    1  UNL1        0.0579
     10 C         139.9281  141.3312  163.0911 C.2     1  UNL1        0.2665
     11 O         139.3934  140.4762  161.9806 O.2     1  UNL1       -0.2683
     12 C         141.2420  143.8527  158.4904 C.3     1  UNL1        0.0333
     13 C         139.9740  144.2078  159.2090 C.3     1  UNL1        0.0071
     14 C         139.7793  143.7911  160.6368 C.3     1  UNL1        0.0202
     15 C         140.8524  143.0195  161.3459 C.3     1  UNL1        0.0757
     16 C         142.1203  142.6644  160.6274 C.3     1  UNL1        0.0202
     17 C         142.3151  143.0811  159.1996 C.3     1  UNL1        0.0071
     18 C         140.5224  144.5900  157.4002 C.ar    1  UNL1       -0.0207
     19 C         141.0483  145.9072  156.9120 C.ar    1  UNL1       -0.0042
     20 C         140.3286  146.6445  155.8217 C.ar    1  UNL1        0.0005
     21 C         139.0832  146.0645  155.2198 C.ar    1  UNL1        0.0114
     22 C         138.5573  144.7473  155.7080 C.ar    1  UNL1        0.0574
     23 CL        137.3118  144.1675  155.1060 Cl      1  UNL1       -0.0823
     24 C         139.2768  144.0101  156.7982 C.ar    1  UNL1        0.0072
     25 N         143.7165  143.6325  157.7302 N.3     1  UNL1       -0.3209
     26 C         142.2600  143.7537  157.3932 C.3     1  UNL1        0.0691
     27 H         144.2611  143.5766  156.8696 H       1  UNL1        0.1189
     28 H         143.8684  142.7895  158.2841 H       1  UNL1        0.1189
     29 C         138.0794  137.9546  166.5812 C.3     1  UNL1        0.4523
     30 F         137.3499  136.6830  166.8985 F       1  UNL1       -0.1632
     31 F         138.8082  137.2592  165.4698 F       1  UNL1       -0.1632
     32 F         137.3506  138.6501  167.6926 F       1  UNL1       -0.1632
     33 C         140.6079  142.2080  168.1674 C.3     1  UNL1        0.0401
     34 C         140.3931  143.2568  169.2180 C.3     1  UNL1        0.0063
     35 C         141.7488  142.6401  169.0400 C.3     1  UNL1        0.0063
@<TRIPOS>BOND
     1    25    26    1
     2    12    26    1
     3    12    18    1
     4    18    19   ar
     5    19    20   ar
     6    20    21   ar
     7    21    22   ar
     8    22    23    1
     9    22    24   ar
    10    12    13    1
    11    13    14    1
    12    14    15    1
    13    15     1    1
    14     1     2    1
    15     2     3    1
    16     3     4    1
    17     4     5   ar
    18     5     6   ar
    19     6     7   ar
    20     7    29    1
    21    29    30    1
    22    29    31    1
    23    29    32    1
    24     7     8   ar
    25     8     9   ar
    26     9    33    1
    27    33    34    1
    28    34    35    1
    29     5    10    1
    30    10    11    2
    31    15    16    1
    32    16    17    1
    33    17    12    1
    34    24    18   ar
    35    10     1   am
    36     9     4   ar
    37    35    33    1
    38    25    27    1
    39    25    28    1
@<TRIPOS>MOLECULE
*****
 35 39 0 0 0
SMALL
GASTEIGER

@<TRIPOS>ATOM
      1 N         143.1045  140.0039  162.2020 N.am    1  UNL1       -0.2761
      2 C         143.7892  141.1712  161.5550 C.3     1  UNL1        0.0985
      3 C         144.0403  141.1679  160.0762 C.3     1  UNL1        0.0507
      4 C         143.6068  139.9973  159.2445 C.ar    1  UNL1        0.0153
      5 C         142.9220  138.8301  159.8915 C.ar    1  UNL1        0.1335
      6 N         142.4885  137.6595  159.0597 N.ar    1  UNL1       -0.2190
      7 C         142.7396  137.6562  157.5809 C.ar    1  UNL1        0.2349
      8 N         143.4244  138.8235  156.9338 N.ar    1  UNL1       -0.2280
      9 C         143.8580  139.9940  157.7656 C.ar    1  UNL1        0.0579
     10 C         142.6709  138.8334  161.3703 C.2     1  UNL1        0.2665
     11 O         141.9861  137.6661  162.0174 O.2     1  UNL1       -0.2683
     12 C         142.3509  140.0138  166.6386 C.3     1  UNL1        0.0333
     13 C         141.6557  141.0090  165.7575 C.3     1  UNL1        0.0071
     14 C         141.9069  141.0057  164.2787 C.3     1  UNL1        0.0202
     15 C         142.8533  140.0072  163.6809 C.3     1  UNL1        0.0757
     16 C         143.5485  139.0120  164.5619 C.3     1  UNL1        0.0202
     17 C         143.2973  139.0153  166.0408 C.3     1  UNL1        0.0071
     18 C         141.5493  140.7562  167.6662 C.ar    1  UNL1       -0.0207
     19 C         141.8990  142.1739  168.0095 C.ar    1  UNL1       -0.0042
     20 C         141.0973  142.9163  169.0372 C.ar    1  UNL1        0.0005
     21 C         139.9460  142.2410  169.7216 C.ar    1  UNL1        0.0114
     22 C         139.5963  140.8233  169.3783 C.ar    1  UNL1        0.0574
     23 CL        138.4450  140.1481  170.0628 Cl      1  UNL1       -0.0823
     24 C         140.3979  140.0809  168.3507 C.ar    1  UNL1        0.0072
     25 N         143.6442  138.0640  167.7680 N.3     1  UNL1       -0.3209
     26 C         142.7677  139.2764  167.8765 C.3     1  UNL1        0.0691
     27 H         143.8270  137.6921  168.7000 H       1  UNL1        0.1189
     28 H         144.5265  138.3209  167.3254 H       1  UNL1        0.1189
     29 C         142.3060  136.4857  156.7491 C.3     1  UNL1        0.4523
     30 F         141.8725  135.3151  155.9174 F       1  UNL1       -0.1632
     31 F         143.7307  136.0262  156.6531 F       1  UNL1       -0.1632
     32 F         140.8814  136.9452  156.8452 F       1  UNL1       -0.1632
     33 C         144.5427  141.1613  157.1186 C.3     1  UNL1        0.0401
     34 C         144.4711  142.4376  156.3338 C.3     1  UNL1        0.0063
     35 C         145.8002  141.9067  156.7826 C.3     1  UNL1        0.0063
@<TRIPOS>BOND
     1    25    26    1
     2    12    26    1
     3    12    18    1
     4    18    19   ar
     5    19    20   ar
     6    20    21   ar
     7    21    22   ar
     8    22    23    1
     9    22    24   ar
    10    12    13    1
    11    13    14    1
    12    14    15    1
    13    15     1    1
    14     1     2    1
    15     2     3    1
    16     3     4    1
    17     4     5   ar
    18     5     6   ar
    19     6     7   ar
    20     7    29    1
    21    29    30    1
    22    29    31    1
    23    29    32    1
    24     7     8   ar
    25     8     9   ar
    26     9    33    1
    27    33    34    1
    28    34    35    1
    29     5    10    1
    30    10    11    2
    31    15    16    1
    32    16    17    1
    33    17    12    1
    34    24    18   ar
    35    10     1   am
    36     9     4   ar
    37    35    33    1
    38    25    27    1
    39    25    28    1
@<TRIPOS>MOLECULE
*****
 35 39 0 0 0
SMALL
GASTEIGER

@<TRIPOS>ATOM
      1 N         140.8305  143.3290  159.7195 N.am    1  UNL1       -0.2761
      2 C         142.2935  143.1669  160.0080 C.3     1  UNL1        0.0985
      3 C         142.7384  142.4378  161.2411 C.3     1  UNL1        0.0507
      4 C         141.7204  141.8708  162.1855 C.ar    1  UNL1        0.0153
      5 C         140.2574  142.0328  161.8970 C.ar    1  UNL1        0.1335
      6 N         139.2393  141.4658  162.8414 N.ar    1  UNL1       -0.2190
      7 C         139.6842  140.7367  164.0745 C.ar    1  UNL1        0.2349
      8 N         141.1473  140.5746  164.3631 N.ar    1  UNL1       -0.2280
      9 C         142.1654  141.1416  163.4186 C.ar    1  UNL1        0.0579
     10 C         139.8124  142.7619  160.6639 C.2     1  UNL1        0.2665
     11 O         138.3493  142.9240  160.3753 O.2     1  UNL1       -0.2683
     12 C         139.4955  145.5164  156.0203 C.3     1  UNL1        0.0333
     13 C         140.2368  146.2495  157.0988 C.3     1  UNL1        0.0071
     14 C         140.6818  145.5204  158.3318 C.3     1  UNL1        0.0202
     15 C         140.3855  144.0581  158.4864 C.3     1  UNL1        0.0757
     16 C         139.6442  143.3249  157.4080 C.3     1  UNL1        0.0202
     17 C         139.1992  144.0541  156.1750 C.3     1  UNL1        0.0071
     18 C         139.5397  146.8896  155.4186 C.ar    1  UNL1       -0.0207
     19 C         140.2959  147.1265  154.1450 C.ar    1  UNL1       -0.0042
     20 C         140.3401  148.4998  153.5433 C.ar    1  UNL1        0.0005
     21 C         139.6281  149.6363  154.2152 C.ar    1  UNL1        0.0114
     22 C         138.8719  149.3994  155.4888 C.ar    1  UNL1        0.0574
     23 CL        138.1599  150.5360  156.1607 Cl      1  UNL1       -0.0823
     24 C         138.8277  148.0262  156.0905 C.ar    1  UNL1        0.0072
     25 N         137.2702  145.2204  154.7125 N.3     1  UNL1       -0.3209
     26 C         138.7695  145.2601  154.7330 C.3     1  UNL1        0.0691
     27 H         136.9480  145.0365  153.7624 H       1  UNL1        0.1189
     28 H         136.9020  146.1176  155.0286 H       1  UNL1        0.1189
     29 C         138.6662  140.1696  165.0189 C.3     1  UNL1        0.4523
     30 F         137.6481  139.6026  165.9634 F       1  UNL1       -0.1632
     31 F         137.9310  141.4771  165.0114 F       1  UNL1       -0.1632
     32 F         139.4014  138.8622  165.0264 F       1  UNL1       -0.1632
     33 C         143.6284  140.9796  163.7072 C.3     1  UNL1        0.0401
     34 C         144.9653  141.5833  164.0203 C.3     1  UNL1        0.0063
     35 C         144.8254  140.0952  163.8939 C.3     1  UNL1        0.0063
@<TRIPOS>BOND
     1    25    26    1
     2    12    26    1
     3    12    18    1
     4    18    19   ar
     5    19    20   ar
     6    20    21   ar
     7    21    22   ar
     8    22    23    1
     9    22    24   ar
    10    12    13    1
    11    13    14    1
    12    14    15    1
    13    15     1    1
    14     1     2    1
    15     2     3    1
    16     3     4    1
    17     4     5   ar
    18     5     6   ar
    19     6     7   ar
    20     7    29    1
    21    29    30    1
    22    29    31    1
    23    29    32    1
    24     7     8   ar
    25     8     9   ar
    26     9    33    1
    27    33    34    1
    28    34    35    1
    29     5    10    1
    30    10    11    2
    31    15    16    1
    32    16    17    1
    33    17    12    1
    34    24    18   ar
    35    10     1   am
    36     9     4   ar
    37    35    33    1
    38    25    27    1
    39    25    28    1
@<TRIPOS>MOLECULE
*****
 35 39 0 0 0
SMALL
GASTEIGER

@<TRIPOS>ATOM
      1 N         141.5015  139.6406  159.9571 N.am    1  UNL1       -0.2761
      2 C         141.1720  138.4035  159.1755 C.3     1  UNL1        0.0985
      3 C         141.9586  138.0621  157.9449 C.3     1  UNL1        0.0507
      4 C         143.0748  138.9579  157.4957 C.ar    1  UNL1        0.0153
      5 C         143.4043  140.1951  158.2772 C.ar    1  UNL1        0.1335
      6 N         144.5204  141.0909  157.8280 N.ar    1  UNL1       -0.2190
      7 C         145.3071  140.7495  156.5973 C.ar    1  UNL1        0.2349
      8 N         144.9776  139.5123  155.8157 N.ar    1  UNL1       -0.2280
      9 C         143.8614  138.6165  156.2649 C.ar    1  UNL1        0.0579
     10 C         142.6177  140.5364  159.5079 C.2     1  UNL1        0.2665
     11 O         142.9472  141.7737  160.2894 O.2     1  UNL1       -0.2683
     12 C         139.1417  140.6649  163.6493 C.3     1  UNL1        0.0333
     13 C         140.3720  139.8136  163.7576 C.3     1  UNL1        0.0071
     14 C         141.1586  139.4722  162.5269 C.3     1  UNL1        0.0202
     15 C         140.7149  139.9821  161.1878 C.3     1  UNL1        0.0757
     16 C         139.4846  140.8333  161.0794 C.3     1  UNL1        0.0202
     17 C         138.6980  141.1747  162.3102 C.3     1  UNL1        0.0071
     18 C         139.1604  140.4213  165.1292 C.ar    1  UNL1       -0.0207
     19 C         138.3348  139.3158  165.7178 C.ar    1  UNL1       -0.0042
     20 C         138.3535  139.0722  167.1979 C.ar    1  UNL1        0.0005
     21 C         139.1977  139.9340  168.0892 C.ar    1  UNL1        0.0114
     22 C         140.0233  141.0395  167.5005 C.ar    1  UNL1        0.0574
     23 CL        140.8675  141.9012  168.3920 Cl      1  UNL1       -0.0823
     24 C         140.0046  141.2831  166.0206 C.ar    1  UNL1        0.0072
     25 N         136.6950  141.4063  163.1866 N.3     1  UNL1       -0.3209
     26 C         137.9179  141.4315  164.0549 C.3     1  UNL1        0.0691
     27 H         135.9645  141.9775  163.6115 H       1  UNL1        0.1189
     28 H         136.3644  140.4459  163.0929 H       1  UNL1        0.1189
     29 C         146.4232  141.6453  156.1481 C.3     1  UNL1        0.4523
     30 F         147.5394  142.5411  155.6989 F       1  UNL1       -0.1632
     31 F         146.5376  140.8635  154.8731 F       1  UNL1       -0.1632
     32 F         146.3088  142.4271  157.4231 F       1  UNL1       -0.1632
     33 C         143.5319  137.3793  155.4834 C.3     1  UNL1        0.0401
     34 C         142.7650  136.7012  154.3871 C.3     1  UNL1        0.0063
     35 C         143.7280  135.9147  155.2261 C.3     1  UNL1        0.0063
@<TRIPOS>BOND
     1    25    26    1
     2    12    26    1
     3    12    18    1
     4    18    19   ar
     5    19    20   ar
     6    20    21   ar
     7    21    22   ar
     8    22    23    1
     9    22    24   ar
    10    12    13    1
    11    13    14    1
    12    14    15    1
    13    15     1    1
    14     1     2    1
    15     2     3    1
    16     3     4    1
    17     4     5   ar
    18     5     6   ar
    19     6     7   ar
    20     7    29    1
    21    29    30    1
    22    29    31    1
    23    29    32    1
    24     7     8   ar
    25     8     9   ar
    26     9    33    1
    27    33    34    1
    28    34    35    1
    29     5    10    1
    30    10    11    2
    31    15    16    1
    32    16    17    1
    33    17    12    1
    34    24    18   ar
    35    10     1   am
    36     9     4   ar
    37    35    33    1
    38    25    27    1
    39    25    28    1
@<TRIPOS>MOLECULE
*****
 35 39 0 0 0
SMALL
GASTEIGER

@<TRIPOS>ATOM
      1 N         139.6170  139.4100  161.7684 N.am    1  UNL1       -0.2761
      2 C         140.6380  138.5414  161.0952 C.3     1  UNL1        0.0985
      3 C         140.6123  138.3709  159.6052 C.3     1  UNL1        0.0507
      4 C         139.5656  139.0689  158.7884 C.ar    1  UNL1        0.0153
      5 C         138.5446  139.9374  159.4615 C.ar    1  UNL1        0.1335
      6 N         137.4979  140.6354  158.6447 N.ar    1  UNL1       -0.2190
      7 C         137.4722  140.4649  157.1547 C.ar    1  UNL1        0.2349
      8 N         138.4932  139.5963  156.4814 N.ar    1  UNL1       -0.2280
      9 C         139.5399  138.8983  157.2983 C.ar    1  UNL1        0.0579
     10 C         138.5703  140.1080  160.9516 C.2     1  UNL1        0.2665
     11 O         137.5493  140.9766  161.6248 O.2     1  UNL1       -0.2683
     12 C         139.6941  139.9217  166.2386 C.3     1  UNL1        0.0333
     13 C         140.7942  140.4997  165.3984 C.3     1  UNL1        0.0071
     14 C         140.7685  140.3291  163.9084 C.3     1  UNL1        0.0202
     15 C         139.6427  139.5806  163.2585 C.3     1  UNL1        0.0757
     16 C         138.5426  139.0027  164.0986 C.3     1  UNL1        0.0202
     17 C         138.5683  139.1733  165.5887 C.3     1  UNL1        0.0071
     18 C         140.5398  140.5447  167.3094 C.ar    1  UNL1       -0.0207
     19 C         141.8023  139.8688  167.7561 C.ar    1  UNL1       -0.0042
     20 C         142.6480  140.4918  168.8269 C.ar    1  UNL1        0.0005
     21 C         142.2313  141.7905  169.4511 C.ar    1  UNL1        0.0114
     22 C         140.9689  142.4664  169.0044 C.ar    1  UNL1        0.0574
     23 CL        140.5523  143.7651  169.6286 Cl      1  UNL1       -0.0823
     24 C         140.1232  141.8435  167.9336 C.ar    1  UNL1        0.0072
     25 N         137.7906  138.5428  167.3454 N.3     1  UNL1       -0.3209
     26 C         138.8877  139.5602  167.4506 C.3     1  UNL1        0.0691
     27 H         137.3511  138.4211  168.2577 H       1  UNL1        0.1189
     28 H         138.1806  137.6531  167.0345 H       1  UNL1        0.1189
     29 C         136.4255  141.1629  156.3378 C.3     1  UNL1        0.4523
     30 F         135.3788  141.8609  155.5210 F       1  UNL1       -0.1632
     31 F         137.4999  141.8357  155.5360 F       1  UNL1       -0.1632
     32 F         135.3511  140.4901  157.1397 F       1  UNL1       -0.1632
     33 C         140.5609  138.0298  156.6251 C.3     1  UNL1        0.0401
     34 C         140.9385  136.7276  155.9835 C.3     1  UNL1        0.0063
     35 C         141.9516  137.8275  156.1007 C.3     1  UNL1        0.0063
@<TRIPOS>BOND
     1    25    26    1
     2    12    26    1
     3    12    18    1
     4    18    19   ar
     5    19    20   ar
     6    20    21   ar
     7    21    22   ar
     8    22    23    1
     9    22    24   ar
    10    12    13    1
    11    13    14    1
    12    14    15    1
    13    15     1    1
    14     1     2    1
    15     2     3    1
    16     3     4    1
    17     4     5   ar
    18     5     6   ar
    19     6     7   ar
    20     7    29    1
    21    29    30    1
    22    29    31    1
    23    29    32    1
    24     7     8   ar
    25     8     9   ar
    26     9    33    1
    27    33    34    1
    28    34    35    1
    29     5    10    1
    30    10    11    2
    31    15    16    1
    32    16    17    1
    33    17    12    1
    34    24    18   ar
    35    10     1   am
    36     9     4   ar
    37    35    33    1
    38    25    27    1
    39    25    28    1
@<TRIPOS>MOLECULE
*****
 35 39 0 0 0
SMALL
GASTEIGER

@<TRIPOS>ATOM
      1 N         140.1859  143.4163  159.7928 N.am    1  UNL1       -0.2761
      2 C         139.0459  142.8776  160.6053 C.3     1  UNL1        0.0985
      3 C         139.3166  142.1643  161.8967 C.3     1  UNL1        0.0507
      4 C         140.7273  141.9898  162.3757 C.ar    1  UNL1        0.0153
      5 C         141.8673  142.5285  161.5633 C.ar    1  UNL1        0.1335
      6 N         143.2780  142.3539  162.0423 N.ar    1  UNL1       -0.2190
      7 C         143.5487  141.6406  163.3337 C.ar    1  UNL1        0.2349
      8 N         142.4087  141.1018  164.1463 N.ar    1  UNL1       -0.2280
      9 C         140.9980  141.2764  163.6672 C.ar    1  UNL1        0.0579
     10 C         141.5966  143.2418  160.2718 C.2     1  UNL1        0.2665
     11 O         142.7366  143.7806  159.4593 O.2     1  UNL1       -0.2683
     12 C         139.3739  145.5564  155.9183 C.3     1  UNL1        0.0333
     13 C         139.9877  146.2965  157.0697 C.3     1  UNL1        0.0071
     14 C         140.2583  145.5832  158.3611 C.3     1  UNL1        0.0202
     15 C         139.9152  144.1297  158.5013 C.3     1  UNL1        0.0757
     16 C         139.3015  143.3895  157.3500 C.3     1  UNL1        0.0202
     17 C         139.0308  144.1029  156.0585 C.3     1  UNL1        0.0071
     18 C         139.5217  146.9169  155.3043 C.ar    1  UNL1       -0.0207
     19 C         140.3724  147.0999  154.0825 C.ar    1  UNL1       -0.0042
     20 C         140.5201  148.4605  153.4684 C.ar    1  UNL1        0.0005
     21 C         139.8172  149.6380  154.0762 C.ar    1  UNL1        0.0114
     22 C         138.9665  149.4549  155.2980 C.ar    1  UNL1        0.0574
     23 CL        138.2637  150.6325  155.9057 Cl      1  UNL1       -0.0823
     24 C         138.8188  148.0944  155.9121 C.ar    1  UNL1        0.0072
     25 N         137.3348  145.0946  154.3761 N.3     1  UNL1       -0.3209
     26 C         138.8115  145.2887  154.5538 C.3     1  UNL1        0.0691
     27 H         137.1304  144.9243  153.3914 H       1  UNL1        0.1189
     28 H         136.8421  145.9323  154.6857 H       1  UNL1        0.1189
     29 C         144.9594  141.4661  163.8127 C.3     1  UNL1        0.4523
     30 F         146.3701  141.2915  164.2917 F       1  UNL1       -0.1632
     31 F         145.4033  142.5799  162.9114 F       1  UNL1       -0.1632
     32 F         144.5156  140.3522  164.7141 F       1  UNL1       -0.1632
     33 C         139.8580  140.7377  164.4797 C.3     1  UNL1        0.0401
     34 C         139.0143  140.7756  165.7194 C.3     1  UNL1        0.0063
     35 C         138.7271  139.7666  164.6473 C.3     1  UNL1        0.0063
@<TRIPOS>BOND
     1    25    26    1
     2    12    26    1
     3    12    18    1
     4    18    19   ar
     5    19    20   ar
     6    20    21   ar
     7    21    22   ar
     8    22    23    1
     9    22    24   ar
    10    12    13    1
    11    13    14    1
    12    14    15    1
    13    15     1    1
    14     1     2    1
    15     2     3    1
    16     3     4    1
    17     4     5   ar
    18     5     6   ar
    19     6     7   ar
    20     7    29    1
    21    29    30    1
    22    29    31    1
    23    29    32    1
    24     7     8   ar
    25     8     9   ar
    26     9    33    1
    27    33    34    1
    28    34    35    1
    29     5    10    1
    30    10    11    2
    31    15    16    1
    32    16    17    1
    33    17    12    1
    34    24    18   ar
    35    10     1   am
    36     9     4   ar
    37    35    33    1
    38    25    27    1
    39    25    28    1
@<TRIPOS>MOLECULE
*****
 35 39 0 0 0
SMALL
GASTEIGER

@<TRIPOS>ATOM
      1 N         141.9227  140.5653  160.2086 N.am    1  UNL1       -0.2761
      2 C         142.8551  141.6800  159.8370 C.3     1  UNL1        0.0985
      3 C         143.7402  141.5475  158.6333 C.3     1  UNL1        0.0507
      4 C         143.6931  140.3003  157.8013 C.ar    1  UNL1        0.0153
      5 C         142.7607  139.1856  158.1729 C.ar    1  UNL1        0.1335
      6 N         142.7136  137.9384  157.3409 N.ar    1  UNL1       -0.2190
      7 C         143.5988  137.8059  156.1372 C.ar    1  UNL1        0.2349
      8 N         144.5312  138.9206  155.7655 N.ar    1  UNL1       -0.2280
      9 C         144.5783  140.1678  156.5975 C.ar    1  UNL1        0.0579
     10 C         141.8756  139.3181  159.3766 C.2     1  UNL1        0.2665
     11 O         140.9432  138.2034  159.7483 O.2     1  UNL1       -0.2683
     12 C         139.2671  140.9626  163.8197 C.3     1  UNL1        0.0333
     13 C         140.6092  140.3044  163.9445 C.3     1  UNL1        0.0071
     14 C         141.4944  140.1719  162.7408 C.3     1  UNL1        0.0202
     15 C         141.0375  140.6977  161.4123 C.3     1  UNL1        0.0757
     16 C         139.6954  141.3560  161.2876 C.3     1  UNL1        0.0202
     17 C         138.8102  141.4884  162.4913 C.3     1  UNL1        0.0071
     18 C         139.2566  140.6247  165.2811 C.ar    1  UNL1       -0.0207
     19 C         138.4192  139.4852  165.7814 C.ar    1  UNL1       -0.0042
     20 C         138.4088  139.1473  167.2428 C.ar    1  UNL1        0.0005
     21 C         139.2357  139.9488  168.2039 C.ar    1  UNL1        0.0114
     22 C         140.0731  141.0883  167.7036 C.ar    1  UNL1        0.0574
     23 CL        140.9000  141.8897  168.6647 Cl      1  UNL1       -0.0823
     24 C         140.0836  141.4262  166.2422 C.ar    1  UNL1        0.0072
     25 N         136.7827  141.4397  163.2282 N.3     1  UNL1       -0.3209
     26 C         137.9214  141.5035  164.2025 C.3     1  UNL1        0.0691
     27 H         135.9498  141.8493  163.6514 H       1  UNL1        0.1189
     28 H         136.5971  140.4666  162.9853 H       1  UNL1        0.1189
     29 C         143.5516  136.5587  155.3052 C.3     1  UNL1        0.4523
     30 F         143.5044  135.3115  154.4731 F       1  UNL1       -0.1632
     31 F         143.1190  137.3671  154.1180 F       1  UNL1       -0.1632
     32 F         143.9842  135.7503  156.4924 F       1  UNL1       -0.1632
     33 C         145.5107  141.2825  156.2259 C.3     1  UNL1        0.0401
     34 C         145.8966  142.3999  155.3026 C.3     1  UNL1        0.0063
     35 C         146.7395  142.0959  156.5055 C.3     1  UNL1        0.0063
@<TRIPOS>BOND
     1    25    26    1
     2    12    26    1
     3    12    18    1
     4    18    19   ar
     5    19    20   ar
     6    20    21   ar
     7    21    22   ar
     8    22    23    1
     9    22    24   ar
    10    12    13    1
    11    13    14    1
    12    14    15    1
    13    15     1    1
    14     1     2    1
    15     2     3    1
    16     3     4    1
    17     4     5   ar
    18     5     6   ar
    19     6     7   ar
    20     7    29    1
    21    29    30    1
    22    29    31    1
    23    29    32    1
    24     7     8   ar
    25     8     9   ar
    26     9    33    1
    27    33    34    1
    28    34    35    1
    29     5    10    1
    30    10    11    2
    31    15    16    1
    32    16    17    1
    33    17    12    1
    34    24    18   ar
    35    10     1   am
    36     9     4   ar
    37    35    33    1
    38    25    27    1
    39    25    28    1
