@<TRIPOS>MOLECULE
*****
 25 28 0 0 0
SMALL
GASTEIGER

@<TRIPOS>ATOM
      1 C         139.4582  138.1489  164.2885 C.3     1  UNL1        0.0768
      2 C         138.4173  137.7529  165.2933 C.3     1  UNL1        0.0096
      3 C         139.4236  138.8119  165.6336 C.3     1  UNL1        0.0113
      4 C         140.6056  139.6520  165.2499 C.3     1  UNL1        0.0178
      5 C         141.1666  140.6461  166.2229 C.3     1  UNL1        0.0721
      6 N         140.5456  140.8002  167.5796 N.3     1  UNL1       -0.2738
      7 C         139.3637  139.9602  167.9633 C.3     1  UNL1        0.0721
      8 C         138.8027  138.9660  166.9903 C.3     1  UNL1        0.0178
      9 N         138.7058  140.5891  159.5209 N.3     1  UNL1       -0.2711
     10 C         138.0848  140.7432  160.8776 C.3     1  UNL1        0.0939
     11 C         138.5426  139.8784  162.0146 C.3     1  UNL1        0.1107
     12 N         139.6214  138.8596  161.7948 N.am    1  UNL1       -0.2767
     13 C         140.0792  137.9948  162.9318 C.2     1  UNL1        0.2252
     14 O         141.1579  136.9760  162.7120 O.2     1  UNL1       -0.2749
     15 C         140.2423  138.7055  160.4381 C.3     1  UNL1        0.1107
     16 C         139.7845  139.5702  159.3012 C.3     1  UNL1        0.0939
     17 C         137.2768  140.9150  157.3758 C.3     1  UNL1        0.0173
     18 C         138.2480  141.4538  158.3840 C.3     1  UNL1        0.0577
     19 C         138.7614  142.8573  158.2552 C.3     1  UNL1        0.0173
     20 C         141.1067  141.7945  168.5527 C.3     1  UNL1        0.0625
     21 C         142.5197  141.6553  169.0364 C.3     1  UNL1        0.0481
     22 C         143.0807  142.6495  170.0095 C.3     1  UNL1        0.1435
     23 O         142.2287  143.7829  170.4988 O.3     1  UNL1       -0.3537
     24 C         140.8156  143.9221  170.0151 C.3     1  UNL1        0.1435
     25 C         140.2546  142.9279  169.0420 C.3     1  UNL1        0.0481
@<TRIPOS>BOND
     1    17    18    1
     2    18    19    1
     3    18     9    1
     4     9    10    1
     5    10    11    1
     6    11    12    1
     7    12    13   am
     8    13    14    2
     9    13     1    1
    10     1     2    1
    11     2     3    1
    12     3     4    1
    13     4     5    1
    14     5     6    1
    15     6    20    1
    16    20    21    1
    17    21    22    1
    18    22    23    1
    19    23    24    1
    20    24    25    1
    21     6     7    1
    22     7     8    1
    23    12    15    1
    24    15    16    1
    25    16     9    1
    26     3     1    1
    27    25    20    1
    28     8     3    1
@<TRIPOS>MOLECULE
*****
 25 28 0 0 0
SMALL
GASTEIGER

@<TRIPOS>ATOM
      1 C         144.0866  140.3810  163.7897 C.3     1  UNL1        0.0768
      2 C         144.0467  138.9684  164.2926 C.3     1  UNL1        0.0096
      3 C         143.5078  140.0821  165.1408 C.3     1  UNL1        0.0113
      4 C         143.2197  141.5406  165.3401 C.3     1  UNL1        0.0178
      5 C         142.5744  142.0109  166.6098 C.3     1  UNL1        0.0721
      6 N         142.2172  141.0227  167.6803 N.3     1  UNL1       -0.2738
      7 C         142.5053  139.5642  167.4810 C.3     1  UNL1        0.0721
      8 C         143.1506  139.0939  166.2112 C.3     1  UNL1        0.0178
      9 N         141.2408  143.0274  160.0282 N.3     1  UNL1       -0.2711
     10 C         140.8836  142.0393  161.0987 C.3     1  UNL1        0.0939
     11 C         141.9513  141.4865  161.9957 C.3     1  UNL1        0.1107
     12 N         143.3762  141.9219  161.8222 N.am    1  UNL1       -0.2767
     13 C         144.4439  141.3692  162.7192 C.2     1  UNL1        0.2252
     14 O         145.8687  141.8046  162.5457 O.2     1  UNL1       -0.2749
     15 C         143.7334  142.9101  160.7517 C.3     1  UNL1        0.1107
     16 C         142.6658  143.4628  159.8547 C.3     1  UNL1        0.0939
     17 C         140.2691  144.9917  158.6328 C.3     1  UNL1        0.0173
     18 C         140.1732  143.5802  159.1312 C.3     1  UNL1        0.0577
     19 C         139.0097  142.7215  158.7327 C.3     1  UNL1        0.0173
     20 C         141.5718  141.4931  168.9501 C.3     1  UNL1        0.0625
     21 C         140.8035  142.7812  168.9684 C.3     1  UNL1        0.0481
     22 C         140.1582  143.2516  170.2382 C.3     1  UNL1        0.1435
     23 O         140.2812  142.4339  171.4896 O.3     1  UNL1       -0.3537
     24 C         141.0496  141.1457  171.4713 C.3     1  UNL1        0.1435
     25 C         141.6949  140.6753  170.2015 C.3     1  UNL1        0.0481
@<TRIPOS>BOND
     1    17    18    1
     2    18    19    1
     3    18     9    1
     4     9    10    1
     5    10    11    1
     6    11    12    1
     7    12    13   am
     8    13    14    2
     9    13     1    1
    10     1     2    1
    11     2     3    1
    12     3     4    1
    13     4     5    1
    14     5     6    1
    15     6    20    1
    16    20    21    1
    17    21    22    1
    18    22    23    1
    19    23    24    1
    20    24    25    1
    21     6     7    1
    22     7     8    1
    23    12    15    1
    24    15    16    1
    25    16     9    1
    26     3     1    1
    27    25    20    1
    28     8     3    1
@<TRIPOS>MOLECULE
*****
 25 28 0 0 0
SMALL
GASTEIGER

@<TRIPOS>ATOM
      1 C         138.1815  139.9788  164.5456 C.3     1  UNL1        0.0768
      2 C         137.9899  138.8698  165.5372 C.3     1  UNL1        0.0096
      3 C         138.8520  140.0468  165.8856 C.3     1  UNL1        0.0113
      4 C         139.4604  141.3666  165.5143 C.3     1  UNL1        0.0178
      5 C         140.3453  142.0853  166.4892 C.3     1  UNL1        0.0721
      6 N         140.6218  141.4842  167.8353 N.3     1  UNL1       -0.2738
      7 C         140.0135  140.1644  168.2067 C.3     1  UNL1        0.0721
      8 C         139.1286  139.4457  167.2318 C.3     1  UNL1        0.0178
      9 N         139.9576  138.9485  159.5422 N.3     1  UNL1       -0.2711
     10 C         140.2342  138.3474  160.8884 C.3     1  UNL1        0.0939
     11 C         139.5499  138.8913  162.1075 C.3     1  UNL1        0.1107
     12 N         138.5892  140.0361  161.9804 N.am    1  UNL1       -0.2767
     13 C         137.9049  140.5800  163.1995 C.2     1  UNL1        0.2252
     14 O         136.9442  141.7248  163.0723 O.2     1  UNL1       -0.2749
     15 C         138.3126  140.6373  160.6342 C.3     1  UNL1        0.1107
     16 C         138.9968  140.0935  159.4151 C.3     1  UNL1        0.0939
     17 C         142.1327  138.5052  158.1923 C.3     1  UNL1        0.0173
     18 C         140.6418  138.4048  158.3231 C.3     1  UNL1        0.0577
     19 C         139.8351  137.7606  157.2349 C.3     1  UNL1        0.0173
     20 C         141.5068  142.2030  168.8102 C.3     1  UNL1        0.0625
     21 C         142.9563  141.8335  168.9208 C.3     1  UNL1        0.0481
     22 C         143.8413  142.5523  169.8956 C.3     1  UNL1        0.1435
     23 O         143.2766  143.6405  170.7599 O.3     1  UNL1       -0.3537
     24 C         141.8270  144.0099  170.6493 C.3     1  UNL1        0.1435
     25 C         140.9421  143.2912  169.6745 C.3     1  UNL1        0.0481
@<TRIPOS>BOND
     1    17    18    1
     2    18    19    1
     3    18     9    1
     4     9    10    1
     5    10    11    1
     6    11    12    1
     7    12    13   am
     8    13    14    2
     9    13     1    1
    10     1     2    1
    11     2     3    1
    12     3     4    1
    13     4     5    1
    14     5     6    1
    15     6    20    1
    16    20    21    1
    17    21    22    1
    18    22    23    1
    19    23    24    1
    20    24    25    1
    21     6     7    1
    22     7     8    1
    23    12    15    1
    24    15    16    1
    25    16     9    1
    26     3     1    1
    27    25    20    1
    28     8     3    1
@<TRIPOS>MOLECULE
*****
 25 28 0 0 0
SMALL
GASTEIGER

@<TRIPOS>ATOM
      1 C         138.6992  138.1450  165.5912 C.3     1  UNL1        0.0768
      2 C         139.1555  136.9813  164.7620 C.3     1  UNL1        0.0096
      3 C         138.8366  138.2913  164.1047 C.3     1  UNL1        0.0113
      4 C         138.3890  139.7195  164.2040 C.3     1  UNL1        0.0178
      5 C         138.2841  140.5603  162.9663 C.3     1  UNL1        0.0721
      6 N         138.6269  139.9730  161.6293 N.3     1  UNL1       -0.2738
      7 C         139.0745  138.5448  161.5300 C.3     1  UNL1        0.0721
      8 C         139.1794  137.7040  162.7678 C.3     1  UNL1        0.0178
      9 N         141.2336  141.5334  168.9596 N.3     1  UNL1       -0.2711
     10 C         141.5764  140.9460  167.6227 C.3     1  UNL1        0.0939
     11 C         140.6173  140.0123  166.9455 C.3     1  UNL1        0.1107
     12 N         139.3155  139.6660  167.6053 N.am    1  UNL1       -0.2767
     13 C         138.3564  138.7323  166.9282 C.2     1  UNL1        0.2252
     14 O         137.0547  138.3861  167.5880 O.2     1  UNL1       -0.2749
     15 C         138.9727  140.2534  168.9423 C.3     1  UNL1        0.1107
     16 C         139.9317  141.1870  169.6195 C.3     1  UNL1        0.0939
     17 C         141.6810  143.6959  170.3282 C.3     1  UNL1        0.0173
     18 C         142.1926  142.4670  169.6368 C.3     1  UNL1        0.0577
     19 C         143.6632  142.1718  169.6225 C.3     1  UNL1        0.0173
     20 C         138.5221  140.8139  160.3915 C.3     1  UNL1        0.0625
     21 C         139.0187  142.2292  160.4021 C.3     1  UNL1        0.0481
     22 C         138.9138  143.0701  159.1643 C.3     1  UNL1        0.1435
     23 O         138.3124  142.4956  157.9161 O.3     1  UNL1       -0.3537
     24 C         137.8158  141.0801  157.9056 C.3     1  UNL1        0.1435
     25 C         137.9206  140.2393  159.1433 C.3     1  UNL1        0.0481
@<TRIPOS>BOND
     1    17    18    1
     2    18    19    1
     3    18     9    1
     4     9    10    1
     5    10    11    1
     6    11    12    1
     7    12    13   am
     8    13    14    2
     9    13     1    1
    10     1     2    1
    11     2     3    1
    12     3     4    1
    13     4     5    1
    14     5     6    1
    15     6    20    1
    16    20    21    1
    17    21    22    1
    18    22    23    1
    19    23    24    1
    20    24    25    1
    21     6     7    1
    22     7     8    1
    23    12    15    1
    24    15    16    1
    25    16     9    1
    26     3     1    1
    27    25    20    1
    28     8     3    1
@<TRIPOS>MOLECULE
*****
 25 28 0 0 0
SMALL
GASTEIGER

@<TRIPOS>ATOM
      1 C         138.2803  142.4826  162.8125 C.3     1  UNL1        0.0768
      2 C         137.4031  141.2681  162.8861 C.3     1  UNL1        0.0096
      3 C         138.4058  141.5359  163.9692 C.3     1  UNL1        0.0113
      4 C         139.4911  142.3917  164.5519 C.3     1  UNL1        0.0178
      5 C         140.1424  141.9997  165.8450 C.3     1  UNL1        0.0721
      6 N         139.7084  140.7519  166.5553 N.3     1  UNL1       -0.2738
      7 C         138.6231  139.8961  165.9726 C.3     1  UNL1        0.0721
      8 C         137.9718  140.2881  164.6795 C.3     1  UNL1        0.0178
      9 N         141.8518  143.5117  158.8836 N.3     1  UNL1       -0.2711
     10 C         141.4178  142.2639  159.5940 C.3     1  UNL1        0.0939
     11 C         140.3720  142.3368  160.6668 C.3     1  UNL1        0.1107
     12 N         139.7602  143.6575  161.0293 N.am    1  UNL1       -0.2767
     13 C         138.7143  143.7304  162.1021 C.2     1  UNL1        0.2252
     14 O         138.1025  145.0511  162.4646 O.2     1  UNL1       -0.2749
     15 C         140.1942  144.9053  160.3189 C.3     1  UNL1        0.1107
     16 C         141.2400  144.8324  159.2461 C.3     1  UNL1        0.0939
     17 C         144.2361  142.8307  158.1083 C.3     1  UNL1        0.0173
     18 C         142.8976  143.4388  157.8108 C.3     1  UNL1        0.0577
     19 C         142.6049  143.9741  156.4405 C.3     1  UNL1        0.0173
     20 C         140.3598  140.3599  167.8485 C.3     1  UNL1        0.0625
     21 C         139.5898  140.4473  169.1328 C.3     1  UNL1        0.0481
     22 C         140.2412  140.0554  170.4259 C.3     1  UNL1        0.1435
     23 O         141.6625  139.5760  170.4346 O.3     1  UNL1       -0.3537
     24 C         142.4325  139.4886  169.1502 C.3     1  UNL1        0.1435
     25 C         141.7811  139.8805  167.8572 C.3     1  UNL1        0.0481
@<TRIPOS>BOND
     1    17    18    1
     2    18    19    1
     3    18     9    1
     4     9    10    1
     5    10    11    1
     6    11    12    1
     7    12    13   am
     8    13    14    2
     9    13     1    1
    10     1     2    1
    11     2     3    1
    12     3     4    1
    13     4     5    1
    14     5     6    1
    15     6    20    1
    16    20    21    1
    17    21    22    1
    18    22    23    1
    19    23    24    1
    20    24    25    1
    21     6     7    1
    22     7     8    1
    23    12    15    1
    24    15    16    1
    25    16     9    1
    26     3     1    1
    27    25    20    1
    28     8     3    1
@<TRIPOS>MOLECULE
*****
 25 28 0 0 0
SMALL
GASTEIGER

@<TRIPOS>ATOM
      1 C         141.8444  144.2264  162.6599 C.3     1  UNL1        0.0768
      2 C         140.5466  144.9735  162.7467 C.3     1  UNL1        0.0096
      3 C         140.9893  144.1043  163.8862 C.3     1  UNL1        0.0113
      4 C         141.9942  143.1712  164.4940 C.3     1  UNL1        0.0178
      5 C         141.7560  142.5989  165.8599 C.3     1  UNL1        0.0721
      6 N         140.5130  142.9598  166.6180 N.3     1  UNL1       -0.2738
      7 C         139.5082  143.8929  166.0102 C.3     1  UNL1        0.0721
      8 C         139.7463  144.4652  164.6443 C.3     1  UNL1        0.0178
      9 N         142.8548  141.0214  158.4223 N.3     1  UNL1       -0.2711
     10 C         141.6118  141.3822  159.1804 C.3     1  UNL1        0.0939
     11 C         141.6893  142.3303  160.3403 C.3     1  UNL1        0.1107
     12 N         143.0098  142.9175  160.7420 N.am    1  UNL1       -0.2767
     13 C         143.0874  143.8656  161.9018 C.2     1  UNL1        0.2252
     14 O         144.4079  144.4528  162.3035 O.2     1  UNL1       -0.2749
     15 C         144.2529  142.5566  159.9839 C.3     1  UNL1        0.1107
     16 C         144.1753  141.6086  158.8241 C.3     1  UNL1        0.0939
     17 C         143.9275  139.9627  156.3062 C.3     1  UNL1        0.0173
     18 C         142.7773  140.0733  157.2625 C.3     1  UNL1        0.0577
     19 C         141.5495  139.2360  157.0590 C.3     1  UNL1        0.0173
     20 C         140.2749  142.3875  167.9840 C.3     1  UNL1        0.0625
     21 C         139.9909  140.9234  168.1447 C.3     1  UNL1        0.0481
     22 C         139.7527  140.3511  169.5106 C.3     1  UNL1        0.1435
     23 O         139.7987  141.2429  170.7159 O.3     1  UNL1       -0.3537
     24 C         140.0828  142.7070  170.5552 C.3     1  UNL1        0.1435
     25 C         140.3209  143.2792  169.1892 C.3     1  UNL1        0.0481
@<TRIPOS>BOND
     1    17    18    1
     2    18    19    1
     3    18     9    1
     4     9    10    1
     5    10    11    1
     6    11    12    1
     7    12    13   am
     8    13    14    2
     9    13     1    1
    10     1     2    1
    11     2     3    1
    12     3     4    1
    13     4     5    1
    14     5     6    1
    15     6    20    1
    16    20    21    1
    17    21    22    1
    18    22    23    1
    19    23    24    1
    20    24    25    1
    21     6     7    1
    22     7     8    1
    23    12    15    1
    24    15    16    1
    25    16     9    1
    26     3     1    1
    27    25    20    1
    28     8     3    1
@<TRIPOS>MOLECULE
*****
 25 28 0 0 0
SMALL
GASTEIGER

@<TRIPOS>ATOM
      1 C         138.8553  143.1982  164.3157 C.3     1  UNL1        0.0768
      2 C         138.5603  144.6684  164.3515 C.3     1  UNL1        0.0096
      3 C         139.2594  144.0723  163.1658 C.3     1  UNL1        0.0113
      4 C         139.8334  142.8793  162.4606 C.3     1  UNL1        0.0178
      5 C         140.4703  143.0399  161.1121 C.3     1  UNL1        0.0721
      6 N         140.5333  144.3935  160.4688 N.3     1  UNL1       -0.2738
      7 C         139.9594  145.5865  161.1739 C.3     1  UNL1        0.0721
      8 C         139.3224  145.4259  162.5224 C.3     1  UNL1        0.0178
      9 N         141.5894  140.8249  168.3336 N.3     1  UNL1       -0.2711
     10 C         141.6524  142.1784  167.6902 C.3     1  UNL1        0.0939
     11 C         140.7200  142.5184  166.5654 C.3     1  UNL1        0.1107
     12 N         139.7247  141.5047  166.0839 N.am    1  UNL1       -0.2767
     13 C         138.7923  141.8446  164.9591 C.2     1  UNL1        0.2252
     14 O         137.7970  140.8310  164.4776 O.2     1  UNL1       -0.2749
     15 C         139.6617  140.1512  166.7273 C.3     1  UNL1        0.1107
     16 C         140.5940  139.8112  167.8521 C.3     1  UNL1        0.0939
     17 C         142.5145  139.1056  170.0475 C.3     1  UNL1        0.0173
     18 C         142.5217  140.4849  169.4583 C.3     1  UNL1        0.0577
     19 C         143.4612  141.5244  169.9939 C.3     1  UNL1        0.0173
     20 C         141.1703  144.5540  159.1202 C.3     1  UNL1        0.0625
     21 C         142.1388  143.5232  158.6207 C.3     1  UNL1        0.0481
     22 C         142.7758  143.6837  157.2722 C.3     1  UNL1        0.1435
     23 O         142.4443  144.8750  156.4232 O.3     1  UNL1       -0.3537
     24 C         141.4758  145.9059  156.9227 C.3     1  UNL1        0.1435
     25 C         140.8388  145.7453  158.2712 C.3     1  UNL1        0.0481
@<TRIPOS>BOND
     1    17    18    1
     2    18    19    1
     3    18     9    1
     4     9    10    1
     5    10    11    1
     6    11    12    1
     7    12    13   am
     8    13    14    2
     9    13     1    1
    10     1     2    1
    11     2     3    1
    12     3     4    1
    13     4     5    1
    14     5     6    1
    15     6    20    1
    16    20    21    1
    17    21    22    1
    18    22    23    1
    19    23    24    1
    20    24    25    1
    21     6     7    1
    22     7     8    1
    23    12    15    1
    24    15    16    1
    25    16     9    1
    26     3     1    1
    27    25    20    1
    28     8     3    1
@<TRIPOS>MOLECULE
*****
 25 28 0 0 0
SMALL
GASTEIGER

@<TRIPOS>ATOM
      1 C         142.6640  144.3047  163.4045 C.3     1  UNL1        0.0768
      2 C         144.0535  144.2229  163.9636 C.3     1  UNL1        0.0096
      3 C         142.9166  143.5556  164.6793 C.3     1  UNL1        0.0113
      4 C         141.4581  143.2176  164.7697 C.3     1  UNL1        0.0178
      5 C         140.9476  142.3999  165.9189 C.3     1  UNL1        0.0721
      6 N         141.8957  141.9202  166.9777 N.3     1  UNL1       -0.2738
      7 C         143.3542  142.2582  166.8873 C.3     1  UNL1        0.0721
      8 C         143.8647  143.0759  165.7381 C.3     1  UNL1        0.0178
      9 N         142.2672  143.4810  158.0740 N.3     1  UNL1       -0.2711
     10 C         143.2153  143.0013  159.1328 C.3     1  UNL1        0.0939
     11 C         143.0315  143.4358  160.5567 C.3     1  UNL1        0.1107
     12 N         141.8997  144.3499  160.9218 N.am    1  UNL1       -0.2767
     13 C         141.7159  144.7844  162.3458 C.2     1  UNL1        0.2252
     14 O         140.5841  145.6985  162.7109 O.2     1  UNL1       -0.2749
     15 C         140.9516  144.8296  159.8630 C.3     1  UNL1        0.1107
     16 C         141.1353  144.3952  158.4392 C.3     1  UNL1        0.0939
     17 C         142.3545  144.0518  155.5410 C.3     1  UNL1        0.0173
     18 C         142.4509  143.0466  156.6501 C.3     1  UNL1        0.0577
     19 C         142.7310  141.6070  156.3354 C.3     1  UNL1        0.0173
     20 C         141.3851  141.1025  168.1269 C.3     1  UNL1        0.0625
     21 C         139.9497  141.2142  168.5476 C.3     1  UNL1        0.0481
     22 C         139.4391  140.3964  169.6969 C.3     1  UNL1        0.1435
     23 O         140.3640  139.4670  170.4254 O.3     1  UNL1       -0.3537
     24 C         141.7995  139.3554  170.0046 C.3     1  UNL1        0.1435
     25 C         142.3100  140.1731  168.8554 C.3     1  UNL1        0.0481
@<TRIPOS>BOND
     1    17    18    1
     2    18    19    1
     3    18     9    1
     4     9    10    1
     5    10    11    1
     6    11    12    1
     7    12    13   am
     8    13    14    2
     9    13     1    1
    10     1     2    1
    11     2     3    1
    12     3     4    1
    13     4     5    1
    14     5     6    1
    15     6    20    1
    16    20    21    1
    17    21    22    1
    18    22    23    1
    19    23    24    1
    20    24    25    1
    21     6     7    1
    22     7     8    1
    23    12    15    1
    24    15    16    1
    25    16     9    1
    26     3     1    1
    27    25    20    1
    28     8     3    1
@<TRIPOS>MOLECULE
*****
 25 28 0 0 0
SMALL
GASTEIGER

@<TRIPOS>ATOM
      1 C         144.0311  140.5625  162.1140 C.3     1  UNL1        0.0768
      2 C         145.0206  140.2941  163.2089 C.3     1  UNL1        0.0096
      3 C         143.5496  140.2379  163.4970 C.3     1  UNL1        0.0113
      4 C         142.1291  140.3605  163.0312 C.3     1  UNL1        0.0178
      5 C         141.0018  140.1407  163.9960 C.3     1  UNL1        0.0721
      6 N         141.2951  139.7984  165.4267 N.3     1  UNL1       -0.2738
      7 C         142.7156  139.6758  165.8925 C.3     1  UNL1        0.0721
      8 C         143.8429  139.8956  164.9276 C.3     1  UNL1        0.0178
      9 N         142.5762  137.6629  157.7866 N.3     1  UNL1       -0.2711
     10 C         142.8695  137.3205  159.2173 C.3     1  UNL1        0.0939
     11 C         143.2567  138.4012  160.1828 C.3     1  UNL1        0.1107
     12 N         143.3506  139.8241  159.7177 N.am    1  UNL1       -0.2767
     13 C         143.7378  140.9048  160.6833 C.2     1  UNL1        0.2252
     14 O         143.8317  142.3278  160.2182 O.2     1  UNL1       -0.2749
     15 C         143.0573  140.1665  158.2871 C.3     1  UNL1        0.1107
     16 C         142.6701  139.0859  157.3215 C.3     1  UNL1        0.0939
     17 C         143.0555  135.3675  156.6680 C.3     1  UNL1        0.0173
     18 C         142.1890  136.5823  156.8210 C.3     1  UNL1        0.0577
     19 C         140.9353  136.7164  156.0085 C.3     1  UNL1        0.0173
     20 C         140.1678  139.5786  166.3916 C.3     1  UNL1        0.0625
     21 C         140.2624  140.1132  167.7898 C.3     1  UNL1        0.0481
     22 C         139.1350  139.8935  168.7547 C.3     1  UNL1        0.1435
     23 O         137.9132  139.1390  168.3212 O.3     1  UNL1       -0.3537
     24 C         137.8186  138.6044  166.9229 C.3     1  UNL1        0.1435
     25 C         138.9459  138.8242  165.9581 C.3     1  UNL1        0.0481
@<TRIPOS>BOND
     1    17    18    1
     2    18    19    1
     3    18     9    1
     4     9    10    1
     5    10    11    1
     6    11    12    1
     7    12    13   am
     8    13    14    2
     9    13     1    1
    10     1     2    1
    11     2     3    1
    12     3     4    1
    13     4     5    1
    14     5     6    1
    15     6    20    1
    16    20    21    1
    17    21    22    1
    18    22    23    1
    19    23    24    1
    20    24    25    1
    21     6     7    1
    22     7     8    1
    23    12    15    1
    24    15    16    1
    25    16     9    1
    26     3     1    1
    27    25    20    1
    28     8     3    1
