@<TRIPOS>MOLECULE
*****
 37 41 0 0 0
SMALL
GASTEIGER

@<TRIPOS>ATOM
      1 C         138.7803  139.9834  157.0061 C.3     1  UNL1        0.1021
      2 C         138.1405  140.5670  155.7814 C.3     1  UNL1        0.0643
      3 C         137.4703  141.9071  155.8515 C.3     1  UNL1        0.1368
      4 C         136.7202  143.1323  155.4199 C.3     1  UNL1        0.0437
      5 C         137.2402  141.5762  154.4067 C.3     1  UNL1        0.0437
      6 O         137.4398  142.6636  157.1465 O.3     1  UNL1       -0.4676
      7 C         138.0795  142.0800  158.3712 C.ar    1  UNL1        0.2219
      8 N         138.0490  142.8364  159.6662 N.ar    1  UNL1       -0.2119
      9 C         138.6888  142.2528  160.8909 C.ar    1  UNL1        0.0851
     10 C         139.3590  140.9127  160.8208 C.ar    1  UNL1        0.0177
     11 C         139.3895  140.1562  159.5259 C.ar    1  UNL1        0.0034
     12 C         138.7498  140.7399  158.3011 C.ar    1  UNL1        0.0488
     13 C         138.6583  143.0093  162.1858 C.ar    1  UNL1        0.0284
     14 C         137.6093  142.6977  163.2119 C.ar    1  UNL1        0.0032
     15 C         137.5788  143.4542  164.5068 C.ar    1  UNL1        0.0115
     16 C         138.5973  144.5222  164.7757 C.ar    1  UNL1        0.0585
     17 CL        138.5668  145.2787  166.0706 Cl      1  UNL1       -0.0822
     18 C         139.6462  144.8337  163.7497 C.ar    1  UNL1        0.0228
     19 C         139.6767  144.0772  162.4547 C.ar    1  UNL1        0.0599
     20 CL        140.7255  144.3887  161.4287 Cl      1  UNL1       -0.0822
     21 C         139.9988  140.3291  162.0456 C.ar    1  UNL1        0.0015
     22 C         139.2287  139.3782  162.9133 C.ar    1  UNL1        0.0009
     23 C         139.8685  138.7946  164.1381 C.ar    1  UNL1        0.0114
     24 C         141.2783  139.1619  164.4952 C.ar    1  UNL1        0.0577
     25 CL        141.9181  138.5783  165.7199 Cl      1  UNL1       -0.0822
     26 C         142.0484  140.1127  163.6275 C.ar    1  UNL1        0.0114
     27 C         141.4087  140.6963  162.4027 C.ar    1  UNL1        0.0009
     28 C         140.9127  138.5520  156.6140 C.2     1  UNL1        0.2509
     29 O         141.7046  139.8008  156.3621 O.2     1  UNL1       -0.2726
     30 N         139.4505  138.6433  156.9360 N.am    1  UNL1       -0.3000
     31 H         138.9308  137.8237  157.1013 H       1  UNL1        0.1498
     32 C         140.2976  136.2119  154.4243 C.3     1  UNL1        0.0306
     33 C         141.3003  136.1363  155.5374 C.2     1  UNL1        0.0095
     34 C         142.1962  134.9718  155.8394 C.2     1  UNL1        0.1156
     35 N         143.0327  135.3277  157.0326 N.2     1  UNL1       -0.1509
     36 N         142.6537  136.7122  157.4680 N.2     1  UNL1       -0.1628
     37 C         141.5830  137.2119  156.5439 C.3     1  UNL1        0.2204
@<TRIPOS>BOND
     1    32    33    1
     2    33    34    2
     3    34    35    1
     4    35    36    2
     5    36    37    1
     6    37    28    1
     7    28    29    2
     8    28    30   am
     9     1    30    1
    10     1     2    1
    11     2     3    1
    12     3     4    1
    13     3     5    1
    14     3     6    1
    15     6     7    1
    16     7     8   ar
    17     8     9   ar
    18     9    13    1
    19    13    14   ar
    20    14    15   ar
    21    15    16   ar
    22    16    17    1
    23    16    18   ar
    24    18    19   ar
    25    19    20    1
    26     9    10   ar
    27    10    21    1
    28    21    22   ar
    29    22    23   ar
    30    23    24   ar
    31    24    25    1
    32    24    26   ar
    33    26    27   ar
    34    10    11   ar
    35    11    12   ar
    36    37    33    1
    37    12     1    1
    38    12     7   ar
    39    19    13   ar
    40    27    21   ar
    41    30    31    1
@<TRIPOS>MOLECULE
*****
 37 41 0 0 0
SMALL
GASTEIGER

@<TRIPOS>ATOM
      1 C         138.3425  143.5020  156.8797 C.3     1  UNL1        0.1021
      2 C         138.7637  144.2222  155.6333 C.3     1  UNL1        0.0643
      3 C         140.0767  144.9463  155.5929 C.3     1  UNL1        0.1368
      4 C         141.2176  145.7683  155.0707 C.3     1  UNL1        0.0437
      5 C         139.5812  145.2279  154.2054 C.3     1  UNL1        0.0437
      6 O         140.9684  144.9502  156.7991 O.3     1  UNL1       -0.4676
      7 C         140.5472  144.2300  158.0455 C.ar    1  UNL1        0.2219
      8 N         141.4389  144.2339  159.2517 N.ar    1  UNL1       -0.2119
      9 C         141.0177  143.5137  160.4982 C.ar    1  UNL1        0.0851
     10 C         139.7047  142.7895  160.5386 C.ar    1  UNL1        0.0177
     11 C         138.8129  142.7856  159.3324 C.ar    1  UNL1        0.0034
     12 C         139.2342  143.5059  158.0859 C.ar    1  UNL1        0.0488
     13 C         141.9094  143.5176  161.7043 C.ar    1  UNL1        0.0284
     14 C         142.9594  142.4582  161.8642 C.ar    1  UNL1        0.0032
     15 C         143.8511  142.4621  163.0703 C.ar    1  UNL1        0.0115
     16 C         143.6929  143.5254  164.1166 C.ar    1  UNL1        0.0585
     17 CL        144.5847  143.5293  165.3227 Cl      1  UNL1       -0.0822
     18 C         142.6430  144.5846  163.9567 C.ar    1  UNL1        0.0228
     19 C         141.7512  144.5807  162.7506 C.ar    1  UNL1        0.0599
     20 CL        140.7013  145.6399  162.5907 Cl      1  UNL1       -0.0822
     21 C         139.2834  142.0692  161.7850 C.ar    1  UNL1        0.0015
     22 C         138.4131  142.7601  162.7926 C.ar    1  UNL1        0.0009
     23 C         137.9918  142.0397  164.0392 C.ar    1  UNL1        0.0114
     24 C         138.4410  140.6287  164.2781 C.ar    1  UNL1        0.0577
     25 CL        138.0197  139.9084  165.5246 Cl      1  UNL1       -0.0822
     26 C         139.3113  139.9378  163.2705 C.ar    1  UNL1        0.0114
     27 C         139.7325  140.6581  162.0240 C.ar    1  UNL1        0.0009
     28 C         136.9123  141.4037  156.3299 C.2     1  UNL1        0.2509
     29 O         138.1082  140.7539  155.6993 O.2     1  UNL1       -0.2726
     30 N         137.0294  142.7778  156.9201 N.am    1  UNL1       -0.3000
     31 H         136.2446  143.2043  157.3340 H       1  UNL1        0.1498
     32 C         134.7957  141.1306  153.8611 C.3     1  UNL1        0.0306
     33 C         134.6265  140.5540  155.2355 C.2     1  UNL1        0.0095
     34 C         133.4546  139.7506  155.7164 C.2     1  UNL1        0.1156
     35 N         133.7032  139.3796  157.1484 N.2     1  UNL1       -0.1509
     36 N         135.0287  139.9537  157.5525 N.2     1  UNL1       -0.1628
     37 C         135.5994  140.6796  156.3703 C.3     1  UNL1        0.2204
@<TRIPOS>BOND
     1    32    33    1
     2    33    34    2
     3    34    35    1
     4    35    36    2
     5    36    37    1
     6    37    28    1
     7    28    29    2
     8    28    30   am
     9     1    30    1
    10     1     2    1
    11     2     3    1
    12     3     4    1
    13     3     5    1
    14     3     6    1
    15     6     7    1
    16     7     8   ar
    17     8     9   ar
    18     9    13    1
    19    13    14   ar
    20    14    15   ar
    21    15    16   ar
    22    16    17    1
    23    16    18   ar
    24    18    19   ar
    25    19    20    1
    26     9    10   ar
    27    10    21    1
    28    21    22   ar
    29    22    23   ar
    30    23    24   ar
    31    24    25    1
    32    24    26   ar
    33    26    27   ar
    34    10    11   ar
    35    11    12   ar
    36    37    33    1
    37    12     1    1
    38    12     7   ar
    39    19    13   ar
    40    27    21   ar
    41    30    31    1
@<TRIPOS>MOLECULE
*****
 37 41 0 0 0
SMALL
GASTEIGER

@<TRIPOS>ATOM
      1 C         143.7753  139.9889  155.9929 C.3     1  UNL1        0.1021
      2 C         144.5276  140.6402  154.8706 C.3     1  UNL1        0.0643
      3 C         145.3978  141.8312  155.1428 C.3     1  UNL1        0.1368
      4 C         146.3409  142.9725  154.9016 C.3     1  UNL1        0.0437
      5 C         145.6074  141.6880  153.6644 C.3     1  UNL1        0.0437
      6 O         145.5158  142.3708  156.5374 O.3     1  UNL1       -0.4676
      7 C         144.7635  141.7195  157.6598 C.ar    1  UNL1        0.2219
      8 N         144.8815  142.2591  159.0543 N.ar    1  UNL1       -0.2119
      9 C         144.1292  141.6077  160.1767 C.ar    1  UNL1        0.0851
     10 C         143.2589  140.4166  159.9045 C.ar    1  UNL1        0.0177
     11 C         143.1409  139.8770  158.5099 C.ar    1  UNL1        0.0034
     12 C         143.8933  140.5285  157.3875 C.ar    1  UNL1        0.0488
     13 C         144.2472  142.1473  161.5713 C.ar    1  UNL1        0.0284
     14 C         145.2393  141.5503  162.5251 C.ar    1  UNL1        0.0032
     15 C         145.3572  142.0899  163.9197 C.ar    1  UNL1        0.0115
     16 C         144.4832  143.2265  164.3605 C.ar    1  UNL1        0.0585
     17 CL        144.6012  143.7661  165.7551 Cl      1  UNL1       -0.0822
     18 C         143.4913  143.8234  163.4068 C.ar    1  UNL1        0.0228
     19 C         143.3733  143.2838  162.0122 C.ar    1  UNL1        0.0599
     20 CL        142.3813  143.8808  161.0584 Cl      1  UNL1       -0.0822
     21 C         142.5067  139.7652  161.0269 C.ar    1  UNL1        0.0015
     22 C         143.1164  138.6133  161.7694 C.ar    1  UNL1        0.0009
     23 C         142.3641  137.9620  162.8918 C.ar    1  UNL1        0.0114
     24 C         141.0020  138.4625  163.2717 C.ar    1  UNL1        0.0577
     25 CL        140.2498  137.8111  164.3940 Cl      1  UNL1       -0.0822
     26 C         140.3923  139.6144  162.5291 C.ar    1  UNL1        0.0114
     27 C         141.1446  140.2657  161.4068 C.ar    1  UNL1        0.0009
     28 C         143.5273  137.4580  155.4605 C.2     1  UNL1        0.2509
     29 O         145.0199  137.3093  155.4725 O.2     1  UNL1       -0.2726
     30 N         142.9050  138.7978  155.7207 N.am    1  UNL1       -0.3000
     31 H         141.9254  138.8955  155.7128 H       1  UNL1        0.1498
     32 C         143.3949  134.7307  157.2475 C.3     1  UNL1        0.0306
     33 C         142.5962  135.0134  156.0097 C.2     1  UNL1        0.0095
     34 C         141.5964  134.0921  155.3760 C.2     1  UNL1        0.1156
     35 N         141.0393  134.7763  154.1629 N.2     1  UNL1       -0.1509
     36 N         141.6949  136.1204  154.0469 N.2     1  UNL1       -0.1628
     37 C         142.6570  136.2670  155.1883 C.3     1  UNL1        0.2204
@<TRIPOS>BOND
     1    32    33    1
     2    33    34    2
     3    34    35    1
     4    35    36    2
     5    36    37    1
     6    37    28    1
     7    28    29    2
     8    28    30   am
     9     1    30    1
    10     1     2    1
    11     2     3    1
    12     3     4    1
    13     3     5    1
    14     3     6    1
    15     6     7    1
    16     7     8   ar
    17     8     9   ar
    18     9    13    1
    19    13    14   ar
    20    14    15   ar
    21    15    16   ar
    22    16    17    1
    23    16    18   ar
    24    18    19   ar
    25    19    20    1
    26     9    10   ar
    27    10    21    1
    28    21    22   ar
    29    22    23   ar
    30    23    24   ar
    31    24    25    1
    32    24    26   ar
    33    26    27   ar
    34    10    11   ar
    35    11    12   ar
    36    37    33    1
    37    12     1    1
    38    12     7   ar
    39    19    13   ar
    40    27    21   ar
    41    30    31    1
@<TRIPOS>MOLECULE
*****
 37 41 0 0 0
SMALL
GASTEIGER

@<TRIPOS>ATOM
      1 C         140.9079  138.3102  156.3926 C.3     1  UNL1        0.1021
      2 C         141.7021  137.4691  155.4377 C.3     1  UNL1        0.0643
      3 C         142.8553  136.6515  155.9391 C.3     1  UNL1        0.1368
      4 C         144.0250  135.7124  155.9341 C.3     1  UNL1        0.0437
      5 C         142.9025  136.3018  154.4812 C.3     1  UNL1        0.0437
      6 O         143.2144  136.6750  157.3953 O.3     1  UNL1       -0.4676
      7 C         142.4203  137.5161  158.3501 C.ar    1  UNL1        0.2219
      8 N         142.7794  137.5396  159.8063 N.ar    1  UNL1       -0.2119
      9 C         141.9852  138.3807  160.7611 C.ar    1  UNL1        0.0851
     10 C         140.8319  139.1984  160.2598 C.ar    1  UNL1        0.0177
     11 C         140.4728  139.1749  158.8036 C.ar    1  UNL1        0.0034
     12 C         141.2670  138.3337  157.8487 C.ar    1  UNL1        0.0488
     13 C         142.3443  138.4043  162.2173 C.ar    1  UNL1        0.0284
     14 C         141.5463  137.5991  163.1997 C.ar    1  UNL1        0.0032
     15 C         141.9054  137.6226  164.6559 C.ar    1  UNL1        0.0115
     16 C         143.0625  138.4513  165.1297 C.ar    1  UNL1        0.0585
     17 CL        143.4216  138.4748  166.5859 Cl      1  UNL1       -0.0822
     18 C         143.8605  139.2564  164.1474 C.ar    1  UNL1        0.0228
     19 C         143.5014  139.2329  162.6912 C.ar    1  UNL1        0.0599
     20 CL        144.2993  140.0380  161.7088 Cl      1  UNL1       -0.0822
     21 C         140.0377  140.0396  161.2146 C.ar    1  UNL1        0.0015
     22 C         140.5486  141.3871  161.6307 C.ar    1  UNL1        0.0009
     23 C         139.7544  142.2282  162.5856 C.ar    1  UNL1        0.0114
     24 C         138.4493  141.7218  163.1243 C.ar    1  UNL1        0.0577
     25 CL        137.6551  142.5629  164.0792 Cl      1  UNL1       -0.0822
     26 C         137.9384  140.3743  162.7082 C.ar    1  UNL1        0.0114
     27 C         138.7325  139.5332  161.7534 C.ar    1  UNL1        0.0009
     28 C         138.4680  138.4564  155.5118 C.2     1  UNL1        0.2509
     29 O         138.3348  136.9673  155.6336 O.2     1  UNL1       -0.2726
     30 N         139.7545  139.1279  155.8912 N.am    1  UNL1       -0.3000
     31 H         139.8420  140.1052  155.8112 H       1  UNL1        0.1498
     32 C         136.9765  138.1048  152.6306 C.3     1  UNL1        0.0306
     33 C         136.6291  139.1124  153.6861 C.2     1  UNL1        0.0095
     34 C         135.5352  140.1353  153.6026 C.2     1  UNL1        0.1156
     35 N         135.5446  140.9291  154.8753 N.2     1  UNL1       -0.1509
     36 N         136.6445  140.3968  155.7454 N.2     1  UNL1       -0.1628
     37 C         137.3147  139.2740  155.0104 C.3     1  UNL1        0.2204
@<TRIPOS>BOND
     1    32    33    1
     2    33    34    2
     3    34    35    1
     4    35    36    2
     5    36    37    1
     6    37    28    1
     7    28    29    2
     8    28    30   am
     9     1    30    1
    10     1     2    1
    11     2     3    1
    12     3     4    1
    13     3     5    1
    14     3     6    1
    15     6     7    1
    16     7     8   ar
    17     8     9   ar
    18     9    13    1
    19    13    14   ar
    20    14    15   ar
    21    15    16   ar
    22    16    17    1
    23    16    18   ar
    24    18    19   ar
    25    19    20    1
    26     9    10   ar
    27    10    21    1
    28    21    22   ar
    29    22    23   ar
    30    23    24   ar
    31    24    25    1
    32    24    26   ar
    33    26    27   ar
    34    10    11   ar
    35    11    12   ar
    36    37    33    1
    37    12     1    1
    38    12     7   ar
    39    19    13   ar
    40    27    21   ar
    41    30    31    1
@<TRIPOS>MOLECULE
*****
 37 41 0 0 0
SMALL
GASTEIGER

@<TRIPOS>ATOM
      1 C         139.6212  140.5790  156.4197 C.3     1  UNL1        0.1021
      2 C         138.6172  140.8376  155.3356 C.3     1  UNL1        0.0643
      3 C         137.4489  141.7417  155.5956 C.3     1  UNL1        0.1368
      4 C         136.1853  142.5149  155.3605 C.3     1  UNL1        0.0437
      5 C         137.1743  141.3648  154.1700 C.3     1  UNL1        0.0437
      6 O         137.2846  142.3872  156.9397 O.3     1  UNL1       -0.4676
      7 C         138.2885  142.1286  158.0237 C.ar    1  UNL1        0.2219
      8 N         138.1242  142.7740  159.3677 N.ar    1  UNL1       -0.2119
      9 C         139.1282  142.5154  160.4517 C.ar    1  UNL1        0.0851
     10 C         140.2965  141.6112  160.1917 C.ar    1  UNL1        0.0177
     11 C         140.4609  140.9658  158.8477 C.ar    1  UNL1        0.0034
     12 C         139.4568  141.2245  157.7637 C.ar    1  UNL1        0.0488
     13 C         138.9638  143.1608  161.7957 C.ar    1  UNL1        0.0284
     14 C         139.6662  144.4511  162.0990 C.ar    1  UNL1        0.0032
     15 C         139.5019  145.0966  163.4430 C.ar    1  UNL1        0.0115
     16 C         138.6351  144.4518  164.4837 C.ar    1  UNL1        0.0585
     17 CL        138.4708  145.0972  165.8278 Cl      1  UNL1       -0.0822
     18 C         137.9328  143.1616  164.1804 C.ar    1  UNL1        0.0228
     19 C         138.0972  142.5161  162.8364 C.ar    1  UNL1        0.0599
     20 CL        137.3948  141.2259  162.5331 Cl      1  UNL1       -0.0822
     21 C         141.3005  141.3526  161.2757 C.ar    1  UNL1        0.0015
     22 C         141.0716  140.2452  162.2613 C.ar    1  UNL1        0.0009
     23 C         142.0757  139.9866  163.3454 C.ar    1  UNL1        0.0114
     24 C         143.3085  140.8354  163.4438 C.ar    1  UNL1        0.0577
     25 CL        144.3125  140.5767  164.5278 Cl      1  UNL1       -0.0822
     26 C         143.5374  141.9428  162.4583 C.ar    1  UNL1        0.0114
     27 C         142.5334  142.2014  161.3742 C.ar    1  UNL1        0.0009
     28 C         140.6759  138.2046  156.4345 C.2     1  UNL1        0.2509
     29 O         139.3938  137.6386  156.9693 O.2     1  UNL1       -0.2726
     30 N         140.7896  139.6749  156.1597 N.am    1  UNL1       -0.3000
     31 H         141.6310  140.0464  155.8087 H       1  UNL1        0.1498
     32 C         140.8873  135.9791  154.0572 C.3     1  UNL1        0.0306
     33 C         141.9413  136.2776  155.0818 C.2     1  UNL1        0.0095
     34 C         143.2776  135.6054  155.1936 C.2     1  UNL1        0.1156
     35 N         144.0064  136.2130  156.3555 N.2     1  UNL1       -0.1509
     36 N         143.1204  137.2606  156.9617 N.2     1  UNL1       -0.1628
     37 C         141.8442  137.3005  156.1746 C.3     1  UNL1        0.2204
@<TRIPOS>BOND
     1    32    33    1
     2    33    34    2
     3    34    35    1
     4    35    36    2
     5    36    37    1
     6    37    28    1
     7    28    29    2
     8    28    30   am
     9     1    30    1
    10     1     2    1
    11     2     3    1
    12     3     4    1
    13     3     5    1
    14     3     6    1
    15     6     7    1
    16     7     8   ar
    17     8     9   ar
    18     9    13    1
    19    13    14   ar
    20    14    15   ar
    21    15    16   ar
    22    16    17    1
    23    16    18   ar
    24    18    19   ar
    25    19    20    1
    26     9    10   ar
    27    10    21    1
    28    21    22   ar
    29    22    23   ar
    30    23    24   ar
    31    24    25    1
    32    24    26   ar
    33    26    27   ar
    34    10    11   ar
    35    11    12   ar
    36    37    33    1
    37    12     1    1
    38    12     7   ar
    39    19    13   ar
    40    27    21   ar
    41    30    31    1
@<TRIPOS>MOLECULE
*****
 37 41 0 0 0
SMALL
GASTEIGER

@<TRIPOS>ATOM
      1 C         141.7955  139.7798  156.8951 C.3     1  UNL1        0.1021
      2 C         141.1577  139.0338  155.7607 C.3     1  UNL1        0.0643
      3 C         139.9743  138.1485  156.0166 C.3     1  UNL1        0.1368
      4 C         138.8440  137.1968  155.7585 C.3     1  UNL1        0.0437
      5 C         140.1274  137.9573  154.5367 C.3     1  UNL1        0.0437
      6 O         139.4285  138.0091  157.4068 O.3     1  UNL1       -0.4676
      7 C         140.0663  138.7550  158.5412 C.ar    1  UNL1        0.2219
      8 N         139.5205  138.6156  159.9314 N.ar    1  UNL1       -0.2119
      9 C         140.1582  139.3615  161.0658 C.ar    1  UNL1        0.0851
     10 C         141.3418  140.2469  160.8100 C.ar    1  UNL1        0.0177
     11 C         141.8875  140.3863  159.4197 C.ar    1  UNL1        0.0034
     12 C         141.2497  139.6404  158.2853 C.ar    1  UNL1        0.0488
     13 C         139.6125  139.2221  162.4560 C.ar    1  UNL1        0.0284
     14 C         138.5544  140.1665  162.9446 C.ar    1  UNL1        0.0032
     15 C         138.0086  140.0270  164.3348 C.ar    1  UNL1        0.0115
     16 C         138.5210  138.9432  165.2365 C.ar    1  UNL1        0.0585
     17 CL        137.9753  138.8038  166.6267 Cl      1  UNL1       -0.0822
     18 C         139.5791  137.9990  164.7479 C.ar    1  UNL1        0.0228
     19 C         140.1248  138.1384  163.3577 C.ar    1  UNL1        0.0599
     20 CL        141.1829  137.1941  162.8691 Cl      1  UNL1       -0.0822
     21 C         141.9795  140.9928  161.9443 C.ar    1  UNL1        0.0015
     22 C         141.5019  142.3698  162.2991 C.ar    1  UNL1        0.0009
     23 C         142.1397  143.1157  163.4336 C.ar    1  UNL1        0.0114
     24 C         143.2550  142.4847  164.2132 C.ar    1  UNL1        0.0577
     25 CL        143.8928  143.2306  165.3475 Cl      1  UNL1       -0.0822
     26 C         143.7326  141.1077  163.8584 C.ar    1  UNL1        0.0114
     27 C         143.0949  140.3618  162.7240 C.ar    1  UNL1        0.0009
     28 C         144.3172  140.0593  156.3358 C.2     1  UNL1        0.2509
     29 O         144.4719  138.5680  156.2882 O.2     1  UNL1       -0.2726
     30 N         142.9790  140.6652  156.6393 N.am    1  UNL1       -0.3000
     31 H         142.8775  141.6439  156.6706 H       1  UNL1        0.1498
     32 C         145.3149  142.5226  158.2295 C.3     1  UNL1        0.0306
     33 C         145.9593  142.0769  156.9505 C.2     1  UNL1        0.0095
     34 C         147.1754  142.6852  156.3173 C.2     1  UNL1        0.1156
     35 N         147.4685  141.9288  155.0554 N.2     1  UNL1       -0.1509
     36 N         146.4335  140.8531  154.9088 N.2     1  UNL1       -0.1628
     37 C         145.5007  140.9446  156.0800 C.3     1  UNL1        0.2204
@<TRIPOS>BOND
     1    32    33    1
     2    33    34    2
     3    34    35    1
     4    35    36    2
     5    36    37    1
     6    37    28    1
     7    28    29    2
     8    28    30   am
     9     1    30    1
    10     1     2    1
    11     2     3    1
    12     3     4    1
    13     3     5    1
    14     3     6    1
    15     6     7    1
    16     7     8   ar
    17     8     9   ar
    18     9    13    1
    19    13    14   ar
    20    14    15   ar
    21    15    16   ar
    22    16    17    1
    23    16    18   ar
    24    18    19   ar
    25    19    20    1
    26     9    10   ar
    27    10    21    1
    28    21    22   ar
    29    22    23   ar
    30    23    24   ar
    31    24    25    1
    32    24    26   ar
    33    26    27   ar
    34    10    11   ar
    35    11    12   ar
    36    37    33    1
    37    12     1    1
    38    12     7   ar
    39    19    13   ar
    40    27    21   ar
    41    30    31    1
@<TRIPOS>MOLECULE
*****
 37 41 0 0 0
SMALL
GASTEIGER

@<TRIPOS>ATOM
      1 C         142.1573  145.0941  156.0826 C.3     1  UNL1        0.1021
      2 C         141.3902  145.9997  155.1654 C.3     1  UNL1        0.0643
      3 C         140.1856  146.7355  155.6728 C.3     1  UNL1        0.1368
      4 C         138.9885  147.6392  155.6872 C.3     1  UNL1        0.0437
      5 C         140.2073  147.2193  154.2532 C.3     1  UNL1        0.0437
      6 O         139.7481  146.5656  157.0975 O.3     1  UNL1       -0.4676
      7 C         140.5152  145.6600  158.0147 C.ar    1  UNL1        0.2219
      8 N         140.0776  145.4901  159.4394 N.ar    1  UNL1       -0.2119
      9 C         140.8447  144.5845  160.3567 C.ar    1  UNL1        0.0851
     10 C         142.0494  143.8487  159.8493 C.ar    1  UNL1        0.0177
     11 C         142.4870  144.0186  158.4246 C.ar    1  UNL1        0.0034
     12 C         141.7198  144.9242  157.5073 C.ar    1  UNL1        0.0488
     13 C         140.4072  144.4146  161.7813 C.ar    1  UNL1        0.0284
     14 C         141.0617  145.2158  162.8676 C.ar    1  UNL1        0.0032
     15 C         140.6242  145.0459  164.2922 C.ar    1  UNL1        0.0115
     16 C         139.5321  144.0748  164.6307 C.ar    1  UNL1        0.0585
     17 CL        139.0946  143.9049  166.0554 Cl      1  UNL1       -0.0822
     18 C         138.8777  143.2737  163.5445 C.ar    1  UNL1        0.0228
     19 C         139.3152  143.4436  162.1198 C.ar    1  UNL1        0.0599
     20 CL        138.6607  142.6425  161.0337 Cl      1  UNL1       -0.0822
     21 C         142.8165  142.9431  160.7665 C.ar    1  UNL1        0.0015
     22 C         143.9909  143.4733  161.5344 C.ar    1  UNL1        0.0009
     23 C         144.7580  142.5676  162.4517 C.ar    1  UNL1        0.0114
     24 C         144.3507  141.1318  162.6010 C.ar    1  UNL1        0.0577
     25 CL        145.1178  140.2262  163.5183 Cl      1  UNL1       -0.0822
     26 C         143.1763  140.6015  161.8331 C.ar    1  UNL1        0.0114
     27 C         142.4092  141.5071  160.9159 C.ar    1  UNL1        0.0009
     28 C         143.2285  142.9453  155.0900 C.2     1  UNL1        0.2509
     29 O         141.8902  142.2680  155.1123 O.2     1  UNL1       -0.2726
     30 N         143.3620  144.3583  155.5752 N.am    1  UNL1       -0.3000
     31 H         144.2403  144.8029  155.5606 H       1  UNL1        0.1498
     32 C         145.7775  141.9733  156.8808 C.3     1  UNL1        0.0306
     33 C         145.6047  141.7627  155.4058 C.2     1  UNL1        0.0095
     34 C         146.5733  141.0684  154.4949 C.2     1  UNL1        0.1156
     35 N         146.0003  141.0860  153.1088 N.2     1  UNL1       -0.1509
     36 N         144.6775  141.7912  153.1630 N.2     1  UNL1       -0.1628
     37 C         144.4331  142.2095  154.5826 C.3     1  UNL1        0.2204
@<TRIPOS>BOND
     1    32    33    1
     2    33    34    2
     3    34    35    1
     4    35    36    2
     5    36    37    1
     6    37    28    1
     7    28    29    2
     8    28    30   am
     9     1    30    1
    10     1     2    1
    11     2     3    1
    12     3     4    1
    13     3     5    1
    14     3     6    1
    15     6     7    1
    16     7     8   ar
    17     8     9   ar
    18     9    13    1
    19    13    14   ar
    20    14    15   ar
    21    15    16   ar
    22    16    17    1
    23    16    18   ar
    24    18    19   ar
    25    19    20    1
    26     9    10   ar
    27    10    21    1
    28    21    22   ar
    29    22    23   ar
    30    23    24   ar
    31    24    25    1
    32    24    26   ar
    33    26    27   ar
    34    10    11   ar
    35    11    12   ar
    36    37    33    1
    37    12     1    1
    38    12     7   ar
    39    19    13   ar
    40    27    21   ar
    41    30    31    1
@<TRIPOS>MOLECULE
*****
 37 41 0 0 0
SMALL
GASTEIGER

@<TRIPOS>ATOM
      1 C         141.3178  139.6332  156.7997 C.3     1  UNL1        0.1021
      2 C         141.8568  138.6794  155.7752 C.3     1  UNL1        0.0643
      3 C         142.7227  137.5313  156.2017 C.3     1  UNL1        0.1368
      4 C         143.5783  136.3024  156.1136 C.3     1  UNL1        0.0437
      5 C         142.6930  137.2988  154.7201 C.3     1  UNL1        0.0437
      6 O         143.0495  137.3369  157.6527 O.3     1  UNL1       -0.4676
      7 C         142.5105  138.2907  158.6772 C.ar    1  UNL1        0.2219
      8 N         142.8374  138.0964  160.1282 N.ar    1  UNL1       -0.2119
      9 C         142.2983  139.0502  161.1527 C.ar    1  UNL1        0.0851
     10 C         141.4324  140.1984  160.7262 C.ar    1  UNL1        0.0177
     11 C         141.1055  140.3928  159.2752 C.ar    1  UNL1        0.0034
     12 C         141.6446  139.4389  158.2507 C.ar    1  UNL1        0.0488
     13 C         142.6252  138.8558  162.6037 C.ar    1  UNL1        0.0284
     14 C         143.8657  139.4699  163.1818 C.ar    1  UNL1        0.0032
     15 C         144.1926  139.2755  164.6328 C.ar    1  UNL1        0.0115
     16 C         143.2789  138.4671  165.5057 C.ar    1  UNL1        0.0585
     17 CL        143.6058  138.2728  166.9567 Cl      1  UNL1       -0.0822
     18 C         142.0385  137.8531  164.9275 C.ar    1  UNL1        0.0228
     19 C         141.7116  138.0475  163.4766 C.ar    1  UNL1        0.0599
     20 CL        140.4712  137.4335  162.8984 Cl      1  UNL1       -0.0822
     21 C         140.8933  141.1522  161.7508 C.ar    1  UNL1        0.0015
     22 C         139.5433  140.9145  162.3598 C.ar    1  UNL1        0.0009
     23 C         139.0043  141.8684  163.3844 C.ar    1  UNL1        0.0114
     24 C         139.8153  143.0599  163.7998 C.ar    1  UNL1        0.0577
     25 CL        139.2763  144.0136  164.8243 Cl      1  UNL1       -0.0822
     26 C         141.1653  143.2975  163.1908 C.ar    1  UNL1        0.0114
     27 C         141.7044  142.3437  162.1663 C.ar    1  UNL1        0.0009
     28 C         138.9815  140.5736  156.1613 C.2     1  UNL1        0.2509
     29 O         138.3771  139.2176  156.3758 O.2     1  UNL1       -0.2726
     30 N         140.4518  140.7815  156.3733 N.am    1  UNL1       -0.3000
     31 H         140.8485  141.6714  156.2325 H       1  UNL1        0.1498
     32 C         138.2294  141.3707  153.0875 C.3     1  UNL1        0.0306
     33 C         137.7699  142.0881  154.3220 C.2     1  UNL1        0.0095
     34 C         136.8839  143.2979  154.3603 C.2     1  UNL1        0.1156
     35 N         136.6820  143.6793  155.7970 N.2     1  UNL1       -0.1509
     36 N         137.4432  142.7052  156.6465 N.2     1  UNL1       -0.1628
     37 C         138.1155  141.7218  155.7349 C.3     1  UNL1        0.2204
@<TRIPOS>BOND
     1    32    33    1
     2    33    34    2
     3    34    35    1
     4    35    36    2
     5    36    37    1
     6    37    28    1
     7    28    29    2
     8    28    30   am
     9     1    30    1
    10     1     2    1
    11     2     3    1
    12     3     4    1
    13     3     5    1
    14     3     6    1
    15     6     7    1
    16     7     8   ar
    17     8     9   ar
    18     9    13    1
    19    13    14   ar
    20    14    15   ar
    21    15    16   ar
    22    16    17    1
    23    16    18   ar
    24    18    19   ar
    25    19    20    1
    26     9    10   ar
    27    10    21    1
    28    21    22   ar
    29    22    23   ar
    30    23    24   ar
    31    24    25    1
    32    24    26   ar
    33    26    27   ar
    34    10    11   ar
    35    11    12   ar
    36    37    33    1
    37    12     1    1
    38    12     7   ar
    39    19    13   ar
    40    27    21   ar
    41    30    31    1
@<TRIPOS>MOLECULE
*****
 37 41 0 0 0
SMALL
GASTEIGER

@<TRIPOS>ATOM
      1 C         140.5407  141.8269  156.4547 C.3     1  UNL1        0.1021
      2 C         140.5351  142.7933  155.3075 C.3     1  UNL1        0.0643
      3 C         140.2239  144.2408  155.5478 C.3     1  UNL1        0.1368
      4 C         139.9907  145.6969  155.2731 C.3     1  UNL1        0.0437
      5 C         140.4485  144.2654  154.0649 C.3     1  UNL1        0.0437
      6 O         139.9182  144.7220  156.9353 O.3     1  UNL1       -0.4676
      7 C         139.9238  143.7556  158.0825 C.ar    1  UNL1        0.2219
      8 N         139.6182  144.2368  159.4699 N.ar    1  UNL1       -0.2119
      9 C         139.6238  143.2705  160.6171 C.ar    1  UNL1        0.0851
     10 C         139.9350  141.8228  160.3769 C.ar    1  UNL1        0.0177
     11 C         140.2406  141.3417  158.9894 C.ar    1  UNL1        0.0034
     12 C         140.2350  142.3081  157.8422 C.ar    1  UNL1        0.0488
     13 C         139.3181  143.7516  162.0046 C.ar    1  UNL1        0.0284
     14 C         137.9339  143.6014  162.5626 C.ar    1  UNL1        0.0032
     15 C         137.6282  144.0825  163.9501 C.ar    1  UNL1        0.0115
     16 C         138.7068  144.7140  164.7795 C.ar    1  UNL1        0.0585
     17 CL        138.4012  145.1951  166.1670 Cl      1  UNL1       -0.0822
     18 C         140.0910  144.8642  164.2215 C.ar    1  UNL1        0.0228
     19 C         140.3967  144.3831  162.8340 C.ar    1  UNL1        0.0599
     20 CL        141.7808  144.5333  162.2760 Cl      1  UNL1       -0.0822
     21 C         139.9406  140.8565  161.5241 C.ar    1  UNL1        0.0015
     22 C         138.7249  140.0259  161.8110 C.ar    1  UNL1        0.0009
     23 C         138.7306  139.0595  162.9582 C.ar    1  UNL1        0.0114
     24 C         139.9518  138.9238  163.8185 C.ar    1  UNL1        0.0577
     25 CL        139.9574  137.9574  164.9657 Cl      1  UNL1       -0.0822
     26 C         141.1674  139.7544  163.5316 C.ar    1  UNL1        0.0114
     27 C         141.1618  140.7207  162.3844 C.ar    1  UNL1        0.0009
     28 C         142.2710  139.8972  156.2754 C.2     1  UNL1        0.2509
     29 O         143.3789  140.8626  156.5765 O.2     1  UNL1       -0.2726
     30 N         140.8519  140.3793  156.2145 N.am    1  UNL1       -0.3000
     31 H         140.1248  139.7457  156.0168 H       1  UNL1        0.1498
     32 C         142.6939  137.6191  158.5734 C.3     1  UNL1        0.0306
     33 C         142.7766  137.4026  157.0915 C.2     1  UNL1        0.0095
     34 C         143.0683  136.1008  156.4056 C.2     1  UNL1        0.1156
     35 N         143.0542  136.3434  154.9254 N.2     1  UNL1       -0.1509
     36 N         142.7538  137.7950  154.6965 N.2     1  UNL1       -0.1628
     37 C         142.5823  138.4497  156.0352 C.3     1  UNL1        0.2204
@<TRIPOS>BOND
     1    32    33    1
     2    33    34    2
     3    34    35    1
     4    35    36    2
     5    36    37    1
     6    37    28    1
     7    28    29    2
     8    28    30   am
     9     1    30    1
    10     1     2    1
    11     2     3    1
    12     3     4    1
    13     3     5    1
    14     3     6    1
    15     6     7    1
    16     7     8   ar
    17     8     9   ar
    18     9    13    1
    19    13    14   ar
    20    14    15   ar
    21    15    16   ar
    22    16    17    1
    23    16    18   ar
    24    18    19   ar
    25    19    20    1
    26     9    10   ar
    27    10    21    1
    28    21    22   ar
    29    22    23   ar
    30    23    24   ar
    31    24    25    1
    32    24    26   ar
    33    26    27   ar
    34    10    11   ar
    35    11    12   ar
    36    37    33    1
    37    12     1    1
    38    12     7   ar
    39    19    13   ar
    40    27    21   ar
    41    30    31    1
