@<TRIPOS>MOLECULE
*****
 34 38 0 0 0
SMALL
GASTEIGER

@<TRIPOS>ATOM
      1 C         138.8644  142.1766  158.5444 C.ar    1  UNL1        0.1769
      2 N         139.0886  140.8474  159.2024 N.ar    1  UNL1       -0.2086
      3 C         138.7602  140.9901  160.6590 C.ar    1  UNL1        0.1695
      4 C         138.7950  140.0124  161.7962 C.ar    1  UNL1        0.0567
      5 C         139.2221  138.5951  161.5539 C.ar    1  UNL1        0.0048
      6 C         139.2568  137.6175  162.6911 C.ar    1  UNL1        0.0033
      7 C         138.8644  138.0573  164.0704 C.ar    1  UNL1        0.0385
      8 C         138.4374  139.4746  164.3127 C.ar    1  UNL1        0.1564
      9 C         138.4026  140.4522  163.1756 C.ar    1  UNL1        0.1209
     10 N         137.9755  141.8696  163.4178 N.ar    1  UNL1       -0.2108
     11 C         137.9408  142.8472  162.2806 C.ar    1  UNL1        0.2163
     12 N         137.5137  144.2646  162.5229 N.pl3   1  UNL1       -0.3274
     13 N         138.3331  142.4074  160.9013 N.ar    1  UNL1       -0.1813
     14 N         138.3975  143.1407  159.5943 N.ar    1  UNL1       -0.1451
     15 H         137.2562  144.5532  163.4282 H       1  UNL1        0.1452
     16 H         137.4909  144.9062  161.7765 H       1  UNL1        0.1452
     17 O         138.0450  139.9144  165.6921 O.3     1  UNL1       -0.4699
     18 C         138.0257  138.9236  166.8180 C.3     1  UNL1        0.2525
     19 C         139.0709  142.4871  157.0914 C.3     1  UNL1        0.1408
     20 N         139.1776  146.7645  155.6979 N.pl3   1  UNL1       -0.3024
     21 C         140.2470  146.2472  156.6136 C.3     1  UNL1        0.1082
     22 C         140.2114  144.8214  157.0782 C.3     1  UNL1        0.0941
     23 N         139.1065  143.9129  156.6269 N.3     1  UNL1       -0.2644
     24 C         138.0370  144.4302  155.7110 C.3     1  UNL1        0.0777
     25 C         136.9320  143.5218  155.2598 C.3     1  UNL1        0.0192
     26 C         138.0726  145.8560  155.2465 C.3     1  UNL1        0.1068
     27 C         138.6818  149.2803  156.1163 C.ar    1  UNL1        0.1519
     28 C         138.7174  150.7061  155.6518 C.ar    1  UNL1        0.0382
     29 C         139.2843  151.0420  154.3043 C.ar    1  UNL1        0.0032
     30 C         139.8158  149.9520  153.4213 C.ar    1  UNL1        0.0015
     31 C         139.7802  148.5262  153.8858 C.ar    1  UNL1        0.0176
     32 C         139.2132  148.1904  155.2333 C.ar    1  UNL1        0.0824
     33 C         138.0770  149.9861  158.5424 C.3     1  UNL1        0.2525
     34 O         138.1148  148.9444  157.4637 O.3     1  UNL1       -0.4702
@<TRIPOS>BOND
     1    33    34    1
     2    34    27    1
     3    27    28   ar
     4    28    29   ar
     5    29    30   ar
     6    30    31   ar
     7    31    32   ar
     8    32    20    1
     9    20    21    1
    10    21    22    1
    11    22    23    1
    12    23    19    1
    13    19     1    1
    14     1     2   ar
    15     2     3   ar
    16     3     4   ar
    17     4     5   ar
    18     5     6   ar
    19     6     7   ar
    20     7     8   ar
    21     8    17    1
    22    17    18    1
    23     8     9   ar
    24     9    10   ar
    25    10    11   ar
    26    11    12    1
    27    11    13   ar
    28    13    14   ar
    29    23    24    1
    30    24    25    1
    31    24    26    1
    32    32    27   ar
    33    26    20    1
    34    14     1   ar
    35    13     3   ar
    36     9     4   ar
    37    12    15    1
    38    12    16    1
@<TRIPOS>MOLECULE
*****
 34 38 0 0 0
SMALL
GASTEIGER

@<TRIPOS>ATOM
      1 C         142.1183  137.4225  157.3326 C.ar    1  UNL1        0.1769
      2 N         142.9884  136.2836  157.7752 N.ar    1  UNL1       -0.2086
      3 C         142.9104  135.2083  156.7322 C.ar    1  UNL1        0.1695
      4 C         143.5570  133.8585  156.6320 C.ar    1  UNL1        0.0567
      5 C         144.4752  133.3842  157.7191 C.ar    1  UNL1        0.0048
      6 C         145.1218  132.0344  157.6189 C.ar    1  UNL1        0.0033
      7 C         144.8500  131.1590  156.4315 C.ar    1  UNL1        0.0385
      8 C         143.9318  131.6333  155.3444 C.ar    1  UNL1        0.1564
      9 C         143.2853  132.9830  155.4447 C.ar    1  UNL1        0.1209
     10 N         142.3670  133.4574  154.3576 N.ar    1  UNL1       -0.2108
     11 C         141.7204  134.8072  154.4578 C.ar    1  UNL1        0.2163
     12 N         140.8021  135.2816  153.3707 N.pl3   1  UNL1       -0.3274
     13 N         141.9922  135.6826  155.6451 N.ar    1  UNL1       -0.1813
     14 N         141.5026  137.0511  156.0162 N.ar    1  UNL1       -0.1451
     15 H         140.6238  134.7070  152.5914 H       1  UNL1        0.1452
     16 H         140.3778  136.1675  153.4365 H       1  UNL1        0.1452
     17 O         143.6601  130.7578  154.1571 O.3     1  UNL1       -0.4699
     18 C         144.4974  129.5364  153.9186 C.3     1  UNL1        0.2525
     19 C         141.9019  138.7073  158.0760 C.3     1  UNL1        0.1408
     20 N         140.0007  138.6541  162.1544 N.pl3   1  UNL1       -0.3024
     21 C         139.1607  138.4286  160.9323 C.3     1  UNL1        0.1082
     22 C         139.7944  138.4464  159.5728 C.3     1  UNL1        0.0941
     23 N         141.2682  138.6895  159.4355 N.3     1  UNL1       -0.2644
     24 C         142.1083  138.9150  160.6576 C.3     1  UNL1        0.0777
     25 C         143.5820  139.1582  160.5202 C.3     1  UNL1        0.0192
     26 C         141.4745  138.8973  162.0170 C.3     1  UNL1        0.1068
     27 C         138.8075  139.9000  164.0970 C.ar    1  UNL1        0.1519
     28 C         138.1738  139.8823  165.4565 C.ar    1  UNL1        0.0382
     29 C         138.0995  138.6009  166.2327 C.ar    1  UNL1        0.0032
     30 C         138.6590  137.3372  165.6495 C.ar    1  UNL1        0.0015
     31 C         139.2927  137.3549  164.2900 C.ar    1  UNL1        0.0176
     32 C         139.3670  138.6364  163.5138 C.ar    1  UNL1        0.0824
     33 C         137.7250  141.6092  162.4670 C.3     1  UNL1        0.2525
     34 O         138.8818  141.1814  163.3208 O.3     1  UNL1       -0.4702
@<TRIPOS>BOND
     1    33    34    1
     2    34    27    1
     3    27    28   ar
     4    28    29   ar
     5    29    30   ar
     6    30    31   ar
     7    31    32   ar
     8    32    20    1
     9    20    21    1
    10    21    22    1
    11    22    23    1
    12    23    19    1
    13    19     1    1
    14     1     2   ar
    15     2     3   ar
    16     3     4   ar
    17     4     5   ar
    18     5     6   ar
    19     6     7   ar
    20     7     8   ar
    21     8    17    1
    22    17    18    1
    23     8     9   ar
    24     9    10   ar
    25    10    11   ar
    26    11    12    1
    27    11    13   ar
    28    13    14   ar
    29    23    24    1
    30    24    25    1
    31    24    26    1
    32    32    27   ar
    33    26    20    1
    34    14     1   ar
    35    13     3   ar
    36     9     4   ar
    37    12    15    1
    38    12    16    1
@<TRIPOS>MOLECULE
*****
 34 38 0 0 0
SMALL
GASTEIGER

@<TRIPOS>ATOM
      1 C         139.6175  143.4235  161.4331 C.ar    1  UNL1        0.1769
      2 N         139.5449  143.7633  159.9739 N.ar    1  UNL1       -0.2086
      3 C         138.8106  142.6570  159.2763 C.ar    1  UNL1        0.1695
      4 C         138.4399  142.4494  157.8376 C.ar    1  UNL1        0.0567
      5 C         138.8212  143.4730  156.8097 C.ar    1  UNL1        0.0048
      6 C         138.4504  143.2654  155.3712 C.ar    1  UNL1        0.0033
      7 C         137.6984  142.0342  154.9606 C.ar    1  UNL1        0.0385
      8 C         137.3172  141.0106  155.9886 C.ar    1  UNL1        0.1564
      9 C         137.6879  141.2182  157.4271 C.ar    1  UNL1        0.1209
     10 N         137.3066  140.1945  158.4551 N.ar    1  UNL1       -0.2108
     11 C         137.6774  140.4021  159.8937 C.ar    1  UNL1        0.2163
     12 N         137.2961  139.3784  160.9217 N.pl3   1  UNL1       -0.3274
     13 N         138.4294  141.6333  160.3042 N.ar    1  UNL1       -0.1813
     14 N         138.9280  142.1071  161.6372 N.ar    1  UNL1       -0.1451
     15 H         136.8025  138.5703  160.6523 H       1  UNL1        0.1452
     16 H         137.5394  139.5147  161.8659 H       1  UNL1        0.1452
     17 O         136.5651  139.7793  155.5780 O.3     1  UNL1       -0.4699
     18 C         135.0979  139.8620  155.2774 C.3     1  UNL1        0.2525
     19 C         140.2658  144.2542  162.5007 C.3     1  UNL1        0.1408
     20 N         141.5768  142.3392  166.3560 N.pl3   1  UNL1       -0.3024
     21 C         142.4234  142.2033  165.1253 C.3     1  UNL1        0.1082
     22 C         141.9864  142.8417  163.8401 C.3     1  UNL1        0.0941
     23 N         140.7028  143.6159  163.7858 N.3     1  UNL1       -0.2644
     24 C         139.8562  143.7517  165.0166 C.3     1  UNL1        0.0777
     25 C         138.5726  144.5259  164.9623 C.3     1  UNL1        0.0192
     26 C         140.2932  143.1134  166.3017 C.3     1  UNL1        0.1068
     27 C         141.4324  140.3830  168.0597 C.ar    1  UNL1        0.1519
     28 C         141.8694  139.7447  169.3448 C.ar    1  UNL1        0.0382
     29 C         142.8879  140.4241  170.2114 C.ar    1  UNL1        0.0032
     30 C         143.4695  141.7420  169.7928 C.ar    1  UNL1        0.0015
     31 C         143.0324  142.3804  168.5077 C.ar    1  UNL1        0.0176
     32 C         142.0139  141.7008  167.6411 C.ar    1  UNL1        0.0824
     33 C         138.9914  139.5904  167.6556 C.3     1  UNL1        0.2525
     34 O         140.4139  139.7036  167.1932 O.3     1  UNL1       -0.4702
@<TRIPOS>BOND
     1    33    34    1
     2    34    27    1
     3    27    28   ar
     4    28    29   ar
     5    29    30   ar
     6    30    31   ar
     7    31    32   ar
     8    32    20    1
     9    20    21    1
    10    21    22    1
    11    22    23    1
    12    23    19    1
    13    19     1    1
    14     1     2   ar
    15     2     3   ar
    16     3     4   ar
    17     4     5   ar
    18     5     6   ar
    19     6     7   ar
    20     7     8   ar
    21     8    17    1
    22    17    18    1
    23     8     9   ar
    24     9    10   ar
    25    10    11   ar
    26    11    12    1
    27    11    13   ar
    28    13    14   ar
    29    23    24    1
    30    24    25    1
    31    24    26    1
    32    32    27   ar
    33    26    20    1
    34    14     1   ar
    35    13     3   ar
    36     9     4   ar
    37    12    15    1
    38    12    16    1
@<TRIPOS>MOLECULE
*****
 34 38 0 0 0
SMALL
GASTEIGER

@<TRIPOS>ATOM
      1 C         142.3404  137.1756  157.2365 C.ar    1  UNL1        0.1769
      2 N         141.9281  136.6846  155.8804 N.ar    1  UNL1       -0.2086
      3 C         142.4615  135.2931  155.7094 C.ar    1  UNL1        0.1695
      4 C         142.3673  134.3144  154.5766 C.ar    1  UNL1        0.0567
      5 C         141.6254  134.6834  153.3263 C.ar    1  UNL1        0.0048
      6 C         141.5313  133.7047  152.1935 C.ar    1  UNL1        0.0033
      7 C         142.1792  132.3569  152.3110 C.ar    1  UNL1        0.0385
      8 C         142.9211  131.9879  153.5613 C.ar    1  UNL1        0.1564
      9 C         143.0152  132.9666  154.6941 C.ar    1  UNL1        0.1209
     10 N         143.7572  132.5976  155.9445 N.ar    1  UNL1       -0.2108
     11 C         143.8513  133.5763  157.0772 C.ar    1  UNL1        0.2163
     12 N         144.5932  133.2073  158.3276 N.pl3   1  UNL1       -0.3274
     13 N         143.2034  134.9241  156.9597 N.ar    1  UNL1       -0.1813
     14 N         143.1286  136.0875  157.9035 N.ar    1  UNL1       -0.1451
     15 H         145.0185  132.3227  158.4048 H       1  UNL1        0.1452
     16 H         144.6550  133.8497  159.0711 H       1  UNL1        0.1452
     17 O         143.5690  130.6401  153.6789 O.3     1  UNL1       -0.4699
     18 C         142.7536  129.4490  154.0866 C.3     1  UNL1        0.2525
     19 C         142.0207  138.5188  157.8227 C.3     1  UNL1        0.1408
     20 N         140.0724  138.8019  161.8692 N.pl3   1  UNL1       -0.3024
     21 C         139.2415  138.5070  160.6557 C.3     1  UNL1        0.1082
     22 C         139.8909  138.4126  159.3068 C.3     1  UNL1        0.0941
     23 N         141.3713  138.6132  159.1715 N.3     1  UNL1       -0.2644
     24 C         142.2022  138.9081  160.3851 C.3     1  UNL1        0.0777
     25 C         143.6826  139.1086  160.2497 C.3     1  UNL1        0.0192
     26 C         141.5528  139.0024  161.7339 C.3     1  UNL1        0.1068
     27 C         138.7887  140.1827  163.6567 C.ar    1  UNL1        0.1519
     28 C         138.1392  140.2771  165.0055 C.ar    1  UNL1        0.0382
     29 C         138.1240  139.0849  165.9156 C.ar    1  UNL1        0.0032
     30 C         138.7583  137.7982  165.4769 C.ar    1  UNL1        0.0015
     31 C         139.4077  137.7039  164.1281 C.ar    1  UNL1        0.0176
     32 C         139.4229  138.8962  163.2180 C.ar    1  UNL1        0.0824
     33 C         137.6635  142.3493  162.7677 C.3     1  UNL1        0.2525
     34 O         138.8038  141.3749  162.7465 O.3     1  UNL1       -0.4702
@<TRIPOS>BOND
     1    33    34    1
     2    34    27    1
     3    27    28   ar
     4    28    29   ar
     5    29    30   ar
     6    30    31   ar
     7    31    32   ar
     8    32    20    1
     9    20    21    1
    10    21    22    1
    11    22    23    1
    12    23    19    1
    13    19     1    1
    14     1     2   ar
    15     2     3   ar
    16     3     4   ar
    17     4     5   ar
    18     5     6   ar
    19     6     7   ar
    20     7     8   ar
    21     8    17    1
    22    17    18    1
    23     8     9   ar
    24     9    10   ar
    25    10    11   ar
    26    11    12    1
    27    11    13   ar
    28    13    14   ar
    29    23    24    1
    30    24    25    1
    31    24    26    1
    32    32    27   ar
    33    26    20    1
    34    14     1   ar
    35    13     3   ar
    36     9     4   ar
    37    12    15    1
    38    12    16    1
@<TRIPOS>MOLECULE
*****
 34 38 0 0 0
SMALL
GASTEIGER

@<TRIPOS>ATOM
      1 C         141.4990  144.5483  161.1311 C.ar    1  UNL1        0.1769
      2 N         140.6206  143.3776  160.8025 N.ar    1  UNL1       -0.2086
      3 C         140.0806  143.5778  159.4176 C.ar    1  UNL1        0.1695
      4 C         139.1632  142.7485  158.5685 C.ar    1  UNL1        0.0567
      5 C         138.6186  141.4542  159.0959 C.ar    1  UNL1        0.0048
      6 C         137.7013  140.6251  158.2468 C.ar    1  UNL1        0.0033
      7 C         137.3285  141.0902  156.8704 C.ar    1  UNL1        0.0385
      8 C         137.8731  142.3845  156.3429 C.ar    1  UNL1        0.1564
      9 C         138.7904  143.2137  157.1920 C.ar    1  UNL1        0.1209
     10 N         139.3350  144.5081  156.6646 N.ar    1  UNL1       -0.2108
     11 C         140.2524  145.3372  157.5137 C.ar    1  UNL1        0.2163
     12 N         140.7970  146.6316  156.9863 N.pl3   1  UNL1       -0.3274
     13 N         140.6251  144.8721  158.8902 N.ar    1  UNL1       -0.1813
     14 N         141.5018  145.4719  159.9492 N.ar    1  UNL1       -0.1451
     15 H         140.5523  146.9369  156.0829 H       1  UNL1        0.1452
     16 H         141.3991  147.1758  157.5436 H       1  UNL1        0.1452
     17 O         137.5003  142.8497  154.9665 O.3     1  UNL1       -0.4699
     18 C         136.7465  141.9372  154.0450 C.3     1  UNL1        0.2525
     19 C         142.2439  144.7585  162.4161 C.3     1  UNL1        0.1408
     20 N         140.8405  142.7415  166.1860 N.pl3   1  UNL1       -0.3024
     21 C         139.9091  143.6355  165.4224 C.3     1  UNL1        0.1082
     22 C         140.3769  144.3078  164.1658 C.3     1  UNL1        0.0941
     23 N         141.7761  144.0861  163.6727 N.3     1  UNL1       -0.2644
     24 C         142.7076  143.1920  164.4364 C.3     1  UNL1        0.0777
     25 C         144.1068  142.9703  163.9434 C.3     1  UNL1        0.0192
     26 C         142.2398  142.5197  165.6930 C.3     1  UNL1        0.1068
     27 C         139.8357  140.6696  167.3892 C.ar    1  UNL1        0.1519
     28 C         139.3679  139.9973  168.6458 C.ar    1  UNL1        0.0382
     29 C         139.4371  140.7245  169.9559 C.ar    1  UNL1        0.0032
     30 C         139.9742  142.1240  170.0094 C.ar    1  UNL1        0.0015
     31 C         140.4420  142.7964  168.7528 C.ar    1  UNL1        0.0176
     32 C         140.3727  142.0691  167.4426 C.ar    1  UNL1        0.0824
     33 C         138.5248  140.0232  165.2412 C.3     1  UNL1        0.2525
     34 O         139.7664  139.9425  166.0791 O.3     1  UNL1       -0.4702
@<TRIPOS>BOND
     1    33    34    1
     2    34    27    1
     3    27    28   ar
     4    28    29   ar
     5    29    30   ar
     6    30    31   ar
     7    31    32   ar
     8    32    20    1
     9    20    21    1
    10    21    22    1
    11    22    23    1
    12    23    19    1
    13    19     1    1
    14     1     2   ar
    15     2     3   ar
    16     3     4   ar
    17     4     5   ar
    18     5     6   ar
    19     6     7   ar
    20     7     8   ar
    21     8    17    1
    22    17    18    1
    23     8     9   ar
    24     9    10   ar
    25    10    11   ar
    26    11    12    1
    27    11    13   ar
    28    13    14   ar
    29    23    24    1
    30    24    25    1
    31    24    26    1
    32    32    27   ar
    33    26    20    1
    34    14     1   ar
    35    13     3   ar
    36     9     4   ar
    37    12    15    1
    38    12    16    1
@<TRIPOS>MOLECULE
*****
 34 38 0 0 0
SMALL
GASTEIGER

@<TRIPOS>ATOM
      1 C         140.7070  145.1821  160.7424 C.ar    1  UNL1        0.1769
      2 N         139.9661  145.9440  159.6838 N.ar    1  UNL1       -0.2086
      3 C         140.6476  145.6953  158.3710 C.ar    1  UNL1        0.1695
      4 C         140.3601  146.1843  156.9824 C.ar    1  UNL1        0.0567
      5 C         139.1979  147.0998  156.7352 C.ar    1  UNL1        0.0048
      6 C         138.9104  147.5887  155.3466 C.ar    1  UNL1        0.0033
      7 C         139.7851  147.1621  154.2052 C.ar    1  UNL1        0.0385
      8 C         140.9472  146.2466  154.4523 C.ar    1  UNL1        0.1564
      9 C         141.2347  145.7576  155.8409 C.ar    1  UNL1        0.1209
     10 N         142.3969  144.8420  156.0881 N.ar    1  UNL1       -0.2108
     11 C         142.6844  144.3531  157.4767 C.ar    1  UNL1        0.2163
     12 N         143.8466  143.4375  157.7238 N.pl3   1  UNL1       -0.3274
     13 N         141.8098  144.7797  158.6181 N.ar    1  UNL1       -0.1813
     14 N         141.8465  144.4626  160.0838 N.ar    1  UNL1       -0.1451
     15 H         144.4207  143.1575  156.9747 H       1  UNL1        0.1452
     16 H         144.0353  143.1166  158.6353 H       1  UNL1        0.1452
     17 O         141.8219  145.8199  153.3108 O.3     1  UNL1       -0.4699
     18 C         142.3322  146.8388  152.3354 C.3     1  UNL1        0.2525
     19 C         140.3680  145.1462  162.2032 C.3     1  UNL1        0.1408
     20 N         141.8669  141.7740  164.7784 N.pl3   1  UNL1       -0.3024
     21 C         140.6158  141.6008  163.9692 C.3     1  UNL1        0.1082
     22 C         140.1162  142.7249  163.1108 C.3     1  UNL1        0.0941
     23 N         140.8676  144.0221  163.0616 N.3     1  UNL1       -0.2644
     24 C         142.1187  144.1953  163.8708 C.3     1  UNL1        0.0777
     25 C         142.8702  145.4926  163.8216 C.3     1  UNL1        0.0192
     26 C         142.6184  143.0713  164.7292 C.3     1  UNL1        0.1068
     27 C         143.1372  139.5206  165.0200 C.ar    1  UNL1        0.1519
     28 C         143.6369  138.3965  165.8784 C.ar    1  UNL1        0.0382
     29 C         143.3657  138.4018  167.3536 C.ar    1  UNL1        0.0032
     30 C         142.5949  139.5311  167.9706 C.ar    1  UNL1        0.0015
     31 C         142.0953  140.6552  167.1121 C.ar    1  UNL1        0.0176
     32 C         142.3665  140.6499  165.6368 C.ar    1  UNL1        0.0824
     33 C         144.5382  140.3293  162.9869 C.3     1  UNL1        0.2525
     34 O         143.4084  139.5154  163.5447 O.3     1  UNL1       -0.4702
@<TRIPOS>BOND
     1    33    34    1
     2    34    27    1
     3    27    28   ar
     4    28    29   ar
     5    29    30   ar
     6    30    31   ar
     7    31    32   ar
     8    32    20    1
     9    20    21    1
    10    21    22    1
    11    22    23    1
    12    23    19    1
    13    19     1    1
    14     1     2   ar
    15     2     3   ar
    16     3     4   ar
    17     4     5   ar
    18     5     6   ar
    19     6     7   ar
    20     7     8   ar
    21     8    17    1
    22    17    18    1
    23     8     9   ar
    24     9    10   ar
    25    10    11   ar
    26    11    12    1
    27    11    13   ar
    28    13    14   ar
    29    23    24    1
    30    24    25    1
    31    24    26    1
    32    32    27   ar
    33    26    20    1
    34    14     1   ar
    35    13     3   ar
    36     9     4   ar
    37    12    15    1
    38    12    16    1
@<TRIPOS>MOLECULE
*****
 34 38 0 0 0
SMALL
GASTEIGER

@<TRIPOS>ATOM
      1 C         138.0493  142.0755  161.5987 C.ar    1  UNL1        0.1769
      2 N         138.7196  143.2811  161.0095 N.ar    1  UNL1       -0.2086
      3 C         139.1438  142.9389  159.6120 C.ar    1  UNL1        0.1695
      4 C         139.8490  143.7347  158.5539 C.ar    1  UNL1        0.0567
      5 C         140.2572  145.1517  158.8284 C.ar    1  UNL1        0.0048
      6 C         140.9623  145.9474  157.7703 C.ar    1  UNL1        0.0033
      7 C         141.2594  145.3260  156.4378 C.ar    1  UNL1        0.0385
      8 C         140.8513  143.9090  156.1633 C.ar    1  UNL1        0.1564
      9 C         140.1461  143.1133  157.2214 C.ar    1  UNL1        0.1209
     10 N         139.7379  141.6962  156.9469 N.ar    1  UNL1       -0.2108
     11 C         139.0327  140.9005  158.0050 C.ar    1  UNL1        0.2163
     12 N         138.6246  139.4834  157.7306 N.pl3   1  UNL1       -0.3274
     13 N         138.7357  141.5218  159.3375 N.ar    1  UNL1       -0.1813
     14 N         138.0593  140.9882  160.5654 N.ar    1  UNL1       -0.1451
     15 H         138.8195  139.0755  156.8560 H       1  UNL1        0.1452
     16 H         138.1617  138.9611  158.4250 H       1  UNL1        0.1452
     17 O         141.1483  143.2876  154.8308 O.3     1  UNL1       -0.4699
     18 C         140.1323  143.3534  153.7293 C.3     1  UNL1        0.2525
     19 C         137.4707  141.9748  162.9790 C.3     1  UNL1        0.1408
     20 N         140.1366  142.4331  166.5752 N.pl3   1  UNL1       -0.3024
     21 C         139.7629  143.6358  165.7605 C.3     1  UNL1        0.1082
     22 C         138.8742  143.4831  164.5618 C.3     1  UNL1        0.0941
     23 N         138.3593  142.1276  164.1777 N.3     1  UNL1       -0.2644
     24 C         138.7330  140.9248  164.9925 C.3     1  UNL1        0.0777
     25 C         138.2181  139.5693  164.6084 C.3     1  UNL1        0.0192
     26 C         139.6217  141.0776  166.1912 C.3     1  UNL1        0.1068
     27 C         142.4505  142.1222  167.7149 C.ar    1  UNL1        0.1519
     28 C         143.3392  142.2750  168.9137 C.ar    1  UNL1        0.0382
     29 C         142.8025  142.8914  170.1714 C.ar    1  UNL1        0.0032
     30 C         141.3772  143.3551  170.2305 C.ar    1  UNL1        0.0015
     31 C         140.4885  143.2023  169.0318 C.ar    1  UNL1        0.0176
     32 C         141.0252  142.5859  167.7740 C.ar    1  UNL1        0.0824
     33 C         143.6378  142.3692  165.4172 C.3     1  UNL1        0.2525
     34 O         142.9872  141.5059  166.4572 O.3     1  UNL1       -0.4702
@<TRIPOS>BOND
     1    33    34    1
     2    34    27    1
     3    27    28   ar
     4    28    29   ar
     5    29    30   ar
     6    30    31   ar
     7    31    32   ar
     8    32    20    1
     9    20    21    1
    10    21    22    1
    11    22    23    1
    12    23    19    1
    13    19     1    1
    14     1     2   ar
    15     2     3   ar
    16     3     4   ar
    17     4     5   ar
    18     5     6   ar
    19     6     7   ar
    20     7     8   ar
    21     8    17    1
    22    17    18    1
    23     8     9   ar
    24     9    10   ar
    25    10    11   ar
    26    11    12    1
    27    11    13   ar
    28    13    14   ar
    29    23    24    1
    30    24    25    1
    31    24    26    1
    32    32    27   ar
    33    26    20    1
    34    14     1   ar
    35    13     3   ar
    36     9     4   ar
    37    12    15    1
    38    12    16    1
@<TRIPOS>MOLECULE
*****
 34 38 0 0 0
SMALL
GASTEIGER

@<TRIPOS>ATOM
      1 C         138.2300  143.1979  161.7927 C.ar    1  UNL1        0.1769
      2 N         137.8150  142.4372  160.5684 N.ar    1  UNL1       -0.2086
      3 C         138.7119  142.8507  159.4395 C.ar    1  UNL1        0.1695
      4 C         138.7712  142.4331  158.0000 C.ar    1  UNL1        0.0567
      5 C         137.8018  141.4168  157.4734 C.ar    1  UNL1        0.0048
      6 C         137.8611  140.9992  156.0340 C.ar    1  UNL1        0.0033
      7 C         138.8897  141.5979  155.1211 C.ar    1  UNL1        0.0385
      8 C         139.8591  142.6143  155.6476 C.ar    1  UNL1        0.1564
      9 C         139.7998  143.0318  157.0871 C.ar    1  UNL1        0.1209
     10 N         140.7692  144.0482  157.6137 N.ar    1  UNL1       -0.2108
     11 C         140.7100  144.4658  159.0532 C.ar    1  UNL1        0.2163
     12 N         141.6794  145.4822  159.5798 N.pl3   1  UNL1       -0.3274
     13 N         139.6813  143.8671  159.9661 N.ar    1  UNL1       -0.1813
     14 N         139.3835  144.0816  161.4204 N.ar    1  UNL1       -0.1451
     15 H         142.3545  145.8752  158.9807 H       1  UNL1        0.1452
     16 H         141.6405  145.7563  160.5246 H       1  UNL1        0.1452
     17 O         140.8878  143.2130  154.7348 O.3     1  UNL1       -0.4699
     18 C         140.6195  144.5263  154.0615 C.3     1  UNL1        0.2525
     19 C         137.6019  143.0933  163.1509 C.3     1  UNL1        0.1408
     20 N         139.8595  141.1632  166.5313 N.pl3   1  UNL1       -0.3024
     21 C         139.0096  140.3257  165.6224 C.3     1  UNL1        0.1082
     22 C         138.2571  140.9691  164.4955 C.3     1  UNL1        0.0941
     23 N         138.3544  142.4499  164.2777 N.3     1  UNL1       -0.2644
     24 C         139.2043  143.2875  165.1867 C.3     1  UNL1        0.0777
     25 C         139.3017  144.7684  164.9688 C.3     1  UNL1        0.0192
     26 C         139.9569  142.6441  166.3135 C.3     1  UNL1        0.1068
     27 C         141.9717  139.9350  167.4146 C.ar    1  UNL1        0.1519
     28 C         142.7243  139.2916  168.5414 C.ar    1  UNL1        0.0382
     29 C         142.1172  139.2330  169.9118 C.ar    1  UNL1        0.0032
     30 C         140.7575  139.8178  170.1554 C.ar    1  UNL1        0.0015
     31 C         140.0049  140.4612  169.0286 C.ar    1  UNL1        0.0176
     32 C         140.6121  140.5198  167.6582 C.ar    1  UNL1        0.0824
     33 C         142.4371  138.8281  165.1106 C.3     1  UNL1        0.2525
     34 O         142.5788  139.9936  166.0442 O.3     1  UNL1       -0.4702
@<TRIPOS>BOND
     1    33    34    1
     2    34    27    1
     3    27    28   ar
     4    28    29   ar
     5    29    30   ar
     6    30    31   ar
     7    31    32   ar
     8    32    20    1
     9    20    21    1
    10    21    22    1
    11    22    23    1
    12    23    19    1
    13    19     1    1
    14     1     2   ar
    15     2     3   ar
    16     3     4   ar
    17     4     5   ar
    18     5     6   ar
    19     6     7   ar
    20     7     8   ar
    21     8    17    1
    22    17    18    1
    23     8     9   ar
    24     9    10   ar
    25    10    11   ar
    26    11    12    1
    27    11    13   ar
    28    13    14   ar
    29    23    24    1
    30    24    25    1
    31    24    26    1
    32    32    27   ar
    33    26    20    1
    34    14     1   ar
    35    13     3   ar
    36     9     4   ar
    37    12    15    1
    38    12    16    1
@<TRIPOS>MOLECULE
*****
 34 38 0 0 0
SMALL
GASTEIGER

@<TRIPOS>ATOM
      1 C         143.4633  142.5127  166.5021 C.ar    1  UNL1        0.1769
      2 N         142.2852  141.6553  166.1458 N.ar    1  UNL1       -0.2086
      3 C         141.5234  141.3677  167.4055 C.ar    1  UNL1        0.1695
      4 C         140.2770  140.5748  167.6658 C.ar    1  UNL1        0.0567
      5 C         139.5697  139.8952  166.5309 C.ar    1  UNL1        0.0048
      6 C         138.3233  139.1023  166.7912 C.ar    1  UNL1        0.0033
      7 C         137.7842  138.9890  168.1864 C.ar    1  UNL1        0.0385
      8 C         138.4915  139.6685  169.3212 C.ar    1  UNL1        0.1564
      9 C         139.7378  140.4614  169.0609 C.ar    1  UNL1        0.1209
     10 N         140.4451  141.1410  170.1958 N.ar    1  UNL1       -0.2108
     11 C         141.6915  141.9340  169.9355 C.ar    1  UNL1        0.2163
     12 N         142.3988  142.6136  171.0704 N.pl3   1  UNL1       -0.3274
     13 N         142.2306  142.0473  168.5403 N.ar    1  UNL1       -0.1813
     14 N         143.4296  142.7549  167.9820 N.ar    1  UNL1       -0.1451
     15 H         142.0450  142.5392  171.9861 H       1  UNL1        0.1452
     16 H         143.2169  143.1340  170.8996 H       1  UNL1        0.1452
     17 O         137.9523  139.5552  170.7164 O.3     1  UNL1       -0.4699
     18 C         136.5931  138.9652  170.9496 C.3     1  UNL1        0.2525
     19 C         144.4942  143.0359  165.5463 C.3     1  UNL1        0.1408
     20 N         144.1681  142.1073  161.1552 N.pl3   1  UNL1       -0.3024
     21 C         144.7144  141.0790  162.1008 C.3     1  UNL1        0.1082
     22 C         144.8231  141.3885  163.5644 C.3     1  UNL1        0.0941
     23 N         144.3855  142.7264  164.0826 N.3     1  UNL1       -0.2644
     24 C         143.8392  143.7548  163.1371 C.3     1  UNL1        0.0777
     25 C         143.4016  145.0927  163.6552 C.3     1  UNL1        0.0192
     26 C         143.7305  143.4453  161.6734 C.3     1  UNL1        0.1068
     27 C         143.0940  140.7531  159.2156 C.ar    1  UNL1        0.1519
     28 C         142.9853  140.4436  157.7519 C.ar    1  UNL1        0.0382
     29 C         143.8419  141.1787  156.7642 C.ar    1  UNL1        0.0032
     30 C         144.8074  142.2234  157.2401 C.ar    1  UNL1        0.0015
     31 C         144.9161  142.5330  158.7038 C.ar    1  UNL1        0.0176
     32 C         144.0594  141.7978  159.6916 C.ar    1  UNL1        0.0824
     33 C         140.7851  140.3672  160.3427 C.3     1  UNL1        0.2525
     34 O         142.2373  140.0180  160.2033 O.3     1  UNL1       -0.4702
@<TRIPOS>BOND
     1    33    34    1
     2    34    27    1
     3    27    28   ar
     4    28    29   ar
     5    29    30   ar
     6    30    31   ar
     7    31    32   ar
     8    32    20    1
     9    20    21    1
    10    21    22    1
    11    22    23    1
    12    23    19    1
    13    19     1    1
    14     1     2   ar
    15     2     3   ar
    16     3     4   ar
    17     4     5   ar
    18     5     6   ar
    19     6     7   ar
    20     7     8   ar
    21     8    17    1
    22    17    18    1
    23     8     9   ar
    24     9    10   ar
    25    10    11   ar
    26    11    12    1
    27    11    13   ar
    28    13    14   ar
    29    23    24    1
    30    24    25    1
    31    24    26    1
    32    32    27   ar
    33    26    20    1
    34    14     1   ar
    35    13     3   ar
    36     9     4   ar
    37    12    15    1
    38    12    16    1
