@<TRIPOS>MOLECULE
*****
 37 42 0 0 0
SMALL
GASTEIGER

@<TRIPOS>ATOM
      1 N         138.5598  140.7529  160.9046 N.3     1  UNL1       -0.2703
      2 C         139.2314  142.0835  160.7362 C.3     1  UNL1        0.0727
      3 C         139.2111  142.7704  159.4030 C.3     1  UNL1        0.0260
      4 C         138.5192  142.1268  158.2381 C.3     1  UNL1        0.0737
      5 C         137.8476  140.7962  158.4064 C.3     1  UNL1        0.0260
      6 C         137.8679  140.1092  159.7397 C.3     1  UNL1        0.0727
      7 C         137.8705  141.6084  156.9889 C.3     1  UNL1        0.0306
      8 C         138.0945  142.6140  155.8986 C.3     1  UNL1        0.0992
      9 N         138.8817  143.7539  156.4740 N.am    1  UNL1       -0.2523
     10 C         139.1442  143.4528  157.9198 C.2     1  UNL1        0.2289
     11 O         139.8992  144.3245  158.8790 O.2     1  UNL1       -0.2745
     12 C         139.3280  144.9796  155.7335 C.ar    1  UNL1        0.1034
     13 C         138.8187  146.3739  155.9486 C.ar    1  UNL1        0.0428
     14 C         139.5379  147.2823  154.9960 C.ar    1  UNL1        0.0909
     15 N         140.4919  146.4494  154.1921 N.ar    1  UNL1       -0.2079
     16 S         140.3621  145.0262  154.6480 S.2     1  UNL1        0.0282
     17 C         139.3383  148.7636  154.8695 C.ar    1  UNL1        0.0183
     18 C         138.6734  149.5280  155.9756 C.ar    1  UNL1        0.0015
     19 C         138.4738  151.0093  155.8490 C.ar    1  UNL1        0.0000
     20 C         138.9391  151.7262  154.6163 C.ar    1  UNL1        0.0000
     21 C         139.6041  150.9617  153.5102 C.ar    1  UNL1        0.0000
     22 C         139.8037  149.4805  153.6368 C.ar    1  UNL1        0.0015
     23 C         138.5800  140.0659  162.2379 C.3     1  UNL1        0.1063
     24 C         137.8866  140.6888  163.4132 C.3     1  UNL1        0.1483
     25 O         136.6000  141.4342  163.2163 O.3     1  UNL1       -0.3786
     26 H         136.2874  141.7710  164.0705 H       1  UNL1        0.2108
     27 C         139.6850  142.8459  164.4680 C.3     1  UNL1        0.0306
     28 C         139.3791  141.6447  165.3128 C.ar    1  UNL1       -0.0238
     29 C         138.4800  140.5662  164.7854 C.ar    1  UNL1        0.0015
     30 C         138.1741  139.3650  165.6302 C.ar    1  UNL1       -0.0020
     31 C         138.7673  139.2424  167.0024 C.ar    1  UNL1        0.0060
     32 C         139.6665  140.3210  167.5298 C.ar    1  UNL1        0.0748
     33 C         139.9724  141.5221  166.6850 C.ar    1  UNL1        0.0233
     34 C         140.8864  142.4182  167.4671 C.3     1  UNL1        0.2352
     35 O         141.1455  141.7709  168.7952 O.3     1  UNL1       -0.4404
     36 C         140.3915  140.4747  168.8339 C.2     1  UNL1        0.3413
     37 O         140.3668  139.5029  169.9763 O.2     1  UNL1       -0.2449
@<TRIPOS>BOND
     1    27    28    1
     2    28    29   ar
     3    29    24    1
     4    24    25    1
     5    24    23    1
     6    23     1    1
     7     1     2    1
     8     2     3    1
     9     3     4    1
    10     4     5    1
    11     5     6    1
    12     4     7    1
    13     7     8    1
    14     8     9    1
    15     9    12    1
    16    12    13   ar
    17    13    14   ar
    18    14    17    1
    19    17    18   ar
    20    18    19   ar
    21    19    20   ar
    22    20    21   ar
    23    21    22   ar
    24    14    15   ar
    25    15    16   ar
    26     9    10   am
    27    10    11    2
    28    29    30   ar
    29    30    31   ar
    30    31    32   ar
    31    32    33   ar
    32    33    34    1
    33    34    35    1
    34    35    36    1
    35    36    37    2
    36    33    28   ar
    37     6     1    1
    38    16    12   ar
    39    36    32    1
    40    10     4    1
    41    22    17   ar
    42    25    26    1
@<TRIPOS>MOLECULE
*****
 37 42 0 0 0
SMALL
GASTEIGER

@<TRIPOS>ATOM
      1 N         141.4696  140.1545  162.5815 N.3     1  UNL1       -0.2703
      2 C         142.3130  139.3247  161.6596 C.3     1  UNL1        0.0727
      3 C         143.0188  139.9701  160.5040 C.3     1  UNL1        0.0260
      4 C         142.8811  141.4454  160.2705 C.3     1  UNL1        0.0737
      5 C         142.0377  142.2753  161.1924 C.3     1  UNL1        0.0260
      6 C         141.3320  141.6298  162.3479 C.3     1  UNL1        0.0727
      7 C         142.8377  142.9015  159.9128 C.3     1  UNL1        0.0306
      8 C         143.6840  143.1041  158.6909 C.3     1  UNL1        0.0992
      9 N         144.2505  141.7732  158.2935 N.am    1  UNL1       -0.2523
     10 C         143.7543  140.7481  159.2697 C.2     1  UNL1        0.2289
     11 O         144.0748  139.2829  159.2488 O.2     1  UNL1       -0.2745
     12 C         145.1543  141.5131  157.1251 C.ar    1  UNL1        0.1034
     13 C         146.4239  142.2479  156.8118 C.ar    1  UNL1        0.0428
     14 C         147.0016  141.6615  155.5579 C.ar    1  UNL1        0.0909
     15 N         146.0891  140.5642  155.0961 N.ar    1  UNL1       -0.2079
     16 S         144.9474  140.4726  156.0647 S.2     1  UNL1        0.0282
     17 C         148.2693  142.0960  154.8840 C.ar    1  UNL1        0.0183
     18 C         148.2158  143.0565  153.7331 C.ar    1  UNL1        0.0015
     19 C         149.4835  143.4911  153.0592 C.ar    1  UNL1        0.0000
     20 C         150.8048  142.9650  153.5362 C.ar    1  UNL1        0.0000
     21 C         150.8583  142.0045  154.6871 C.ar    1  UNL1        0.0000
     22 C         149.5906  141.5700  155.3610 C.ar    1  UNL1        0.0015
     23 C         140.7638  139.5091  163.7371 C.3     1  UNL1        0.1063
     24 C         139.6830  140.2517  164.4653 C.3     1  UNL1        0.1483
     25 O         138.3425  140.4472  163.8211 O.3     1  UNL1       -0.3786
     26 H         137.7645  140.9434  164.4217 H       1  UNL1        0.2108
     27 C         138.4376  138.9449  166.8614 C.3     1  UNL1        0.0306
     28 C         139.3199  140.1454  167.0357 C.ar    1  UNL1       -0.0238
     29 C         139.9426  140.7988  165.8376 C.ar    1  UNL1        0.0015
     30 C         140.8249  141.9993  166.0119 C.ar    1  UNL1       -0.0020
     31 C         141.0845  142.5464  167.3842 C.ar    1  UNL1        0.0060
     32 C         140.4618  141.8930  168.5822 C.ar    1  UNL1        0.0748
     33 C         139.5795  140.6925  168.4080 C.ar    1  UNL1        0.0233
     34 C         139.1075  140.2632  169.7655 C.3     1  UNL1        0.2352
     35 O         139.6981  141.1983  170.7788 O.3     1  UNL1       -0.4404
     36 C         140.5351  142.2056  170.0475 C.2     1  UNL1        0.3413
     37 O         141.3094  143.3283  170.6718 O.2     1  UNL1       -0.2449
@<TRIPOS>BOND
     1    27    28    1
     2    28    29   ar
     3    29    24    1
     4    24    25    1
     5    24    23    1
     6    23     1    1
     7     1     2    1
     8     2     3    1
     9     3     4    1
    10     4     5    1
    11     5     6    1
    12     4     7    1
    13     7     8    1
    14     8     9    1
    15     9    12    1
    16    12    13   ar
    17    13    14   ar
    18    14    17    1
    19    17    18   ar
    20    18    19   ar
    21    19    20   ar
    22    20    21   ar
    23    21    22   ar
    24    14    15   ar
    25    15    16   ar
    26     9    10   am
    27    10    11    2
    28    29    30   ar
    29    30    31   ar
    30    31    32   ar
    31    32    33   ar
    32    33    34    1
    33    34    35    1
    34    35    36    1
    35    36    37    2
    36    33    28   ar
    37     6     1    1
    38    16    12   ar
    39    36    32    1
    40    10     4    1
    41    22    17   ar
    42    25    26    1
@<TRIPOS>MOLECULE
*****
 37 42 0 0 0
SMALL
GASTEIGER

@<TRIPOS>ATOM
      1 N         140.2087  140.9845  163.4301 N.3     1  UNL1       -0.2703
      2 C         139.1172  141.5456  162.5677 C.3     1  UNL1        0.0727
      3 C         139.4626  142.3381  161.3419 C.3     1  UNL1        0.0260
      4 C         140.8994  142.5696  160.9785 C.3     1  UNL1        0.0737
      5 C         141.9908  142.0085  161.8409 C.3     1  UNL1        0.0260
      6 C         141.6455  141.2159  163.0667 C.3     1  UNL1        0.0727
      7 C         142.2833  142.8815  160.4911 C.3     1  UNL1        0.0306
      8 C         142.1606  143.6941  159.2362 C.3     1  UNL1        0.0992
      9 N         140.7009  143.8845  158.9481 N.am    1  UNL1       -0.2523
     10 C         139.9214  143.1895  160.0249 C.2     1  UNL1        0.2289
     11 O         138.4265  143.1256  160.1297 O.2     1  UNL1       -0.2745
     12 C         140.1223  144.6375  157.7871 C.ar    1  UNL1        0.1034
     13 C         140.2498  146.1116  157.5406 C.ar    1  UNL1        0.0428
     14 C         139.5209  146.4339  156.2699 C.ar    1  UNL1        0.0909
     15 N         138.9427  145.1590  155.7310 N.ar    1  UNL1       -0.2079
     16 S         139.3144  144.0488  156.6688 S.2     1  UNL1        0.0282
     17 C         139.3925  147.7926  155.6473 C.ar    1  UNL1        0.0183
     18 C         138.6454  148.8782  156.3636 C.ar    1  UNL1        0.0015
     19 C         138.5170  150.2369  155.7409 C.ar    1  UNL1        0.0000
     20 C         139.1359  150.5099  154.4021 C.ar    1  UNL1        0.0000
     21 C         139.8831  149.4241  153.6858 C.ar    1  UNL1        0.0000
     22 C         140.0114  148.0655  154.3085 C.ar    1  UNL1        0.0015
     23 C         139.8634  140.1918  164.6559 C.3     1  UNL1        0.1063
     24 C         140.9506  139.7233  165.5770 C.3     1  UNL1        0.1483
     25 O         141.6515  138.4242  165.3102 O.3     1  UNL1       -0.3786
     26 H         142.3213  138.2716  165.9950 H       1  UNL1        0.2108
     27 C         139.1912  139.7765  168.0063 C.3     1  UNL1        0.0306
     28 C         140.4573  140.5804  167.9795 C.ar    1  UNL1       -0.0238
     29 C         141.3370  140.5538  166.7649 C.ar    1  UNL1        0.0015
     30 C         142.6031  141.3577  166.7380 C.ar    1  UNL1       -0.0020
     31 C         142.9895  142.1882  167.9258 C.ar    1  UNL1        0.0060
     32 C         142.1099  142.2147  169.1405 C.ar    1  UNL1        0.0748
     33 C         140.8437  141.4108  169.1673 C.ar    1  UNL1        0.0233
     34 C         140.1817  141.6330  170.4948 C.3     1  UNL1        0.2352
     35 O         141.0385  142.5743  171.2884 O.3     1  UNL1       -0.4404
     36 C         142.2302  142.9338  170.4514 C.2     1  UNL1        0.3413
     37 O         143.3464  143.8512  170.8545 O.2     1  UNL1       -0.2449
@<TRIPOS>BOND
     1    27    28    1
     2    28    29   ar
     3    29    24    1
     4    24    25    1
     5    24    23    1
     6    23     1    1
     7     1     2    1
     8     2     3    1
     9     3     4    1
    10     4     5    1
    11     5     6    1
    12     4     7    1
    13     7     8    1
    14     8     9    1
    15     9    12    1
    16    12    13   ar
    17    13    14   ar
    18    14    17    1
    19    17    18   ar
    20    18    19   ar
    21    19    20   ar
    22    20    21   ar
    23    21    22   ar
    24    14    15   ar
    25    15    16   ar
    26     9    10   am
    27    10    11    2
    28    29    30   ar
    29    30    31   ar
    30    31    32   ar
    31    32    33   ar
    32    33    34    1
    33    34    35    1
    34    35    36    1
    35    36    37    2
    36    33    28   ar
    37     6     1    1
    38    16    12   ar
    39    36    32    1
    40    10     4    1
    41    22    17   ar
    42    25    26    1
@<TRIPOS>MOLECULE
*****
 37 42 0 0 0
SMALL
GASTEIGER

@<TRIPOS>ATOM
      1 N         144.7458  141.8824  162.6518 N.3     1  UNL1       -0.2703
      2 C         144.2708  140.4665  162.5123 C.3     1  UNL1        0.0727
      3 C         143.7767  139.9684  161.1866 C.3     1  UNL1        0.0260
      4 C         143.7576  140.8862  160.0003 C.3     1  UNL1        0.0737
      5 C         144.2326  142.3021  160.1398 C.3     1  UNL1        0.0260
      6 C         144.7266  142.8002  161.4655 C.3     1  UNL1        0.0727
      7 C         143.6801  141.6834  158.7320 C.3     1  UNL1        0.0306
      8 C         143.1288  140.7933  157.6578 C.3     1  UNL1        0.0992
      9 N         142.8656  139.4458  158.2622 N.am    1  UNL1       -0.2523
     10 C         143.2542  139.5032  159.7099 C.2     1  UNL1        0.2289
     11 O         143.1566  138.3758  160.6944 O.2     1  UNL1       -0.2745
     12 C         142.3112  138.2509  157.5450 C.ar    1  UNL1        0.1034
     13 C         143.0411  136.9691  157.2724 C.ar    1  UNL1        0.0428
     14 C         142.1106  136.0539  156.5332 C.ar    1  UNL1        0.0909
     15 N         140.8055  136.7700  156.3489 N.ar    1  UNL1       -0.2079
     16 S         140.9295  138.1278  156.9742 S.2     1  UNL1        0.0282
     17 C         142.4291  134.6662  156.0612 C.ar    1  UNL1        0.0183
     18 C         143.7689  134.0614  156.3599 C.ar    1  UNL1        0.0015
     19 C         144.0874  132.6737  155.8878 C.ar    1  UNL1        0.0000
     20 C         143.0662  131.8907  155.1171 C.ar    1  UNL1        0.0000
     21 C         141.7263  132.4955  154.8185 C.ar    1  UNL1        0.0000
     22 C         141.4078  133.8832  155.2905 C.ar    1  UNL1        0.0015
     23 C         145.2399  142.3806  163.9776 C.3     1  UNL1        0.1063
     24 C         144.3841  143.2971  164.8007 C.3     1  UNL1        0.1483
     25 O         144.9723  144.0162  165.9785 O.3     1  UNL1       -0.3786
     26 H         144.2895  144.5633  166.3972 H       1  UNL1        0.2108
     27 C         142.3070  141.4114  165.8637 C.3     1  UNL1        0.0306
     28 C         141.9015  142.5518  164.9776 C.ar    1  UNL1       -0.0238
     29 C         142.9400  143.4946  164.4462 C.ar    1  UNL1        0.0015
     30 C         142.5345  144.6350  163.5601 C.ar    1  UNL1       -0.0020
     31 C         141.0905  144.8326  163.2055 C.ar    1  UNL1        0.0060
     32 C         140.0520  143.8897  163.7370 C.ar    1  UNL1        0.0748
     33 C         140.4575  142.7493  164.6231 C.ar    1  UNL1        0.0233
     34 C         139.2196  141.9877  164.9940 C.3     1  UNL1        0.2352
     35 O         138.0490  142.6573  164.3372 O.3     1  UNL1       -0.4404
     36 C         138.5635  143.8328  163.5603 C.2     1  UNL1        0.3413
     37 O         137.7349  144.7845  162.7492 O.2     1  UNL1       -0.2449
@<TRIPOS>BOND
     1    27    28    1
     2    28    29   ar
     3    29    24    1
     4    24    25    1
     5    24    23    1
     6    23     1    1
     7     1     2    1
     8     2     3    1
     9     3     4    1
    10     4     5    1
    11     5     6    1
    12     4     7    1
    13     7     8    1
    14     8     9    1
    15     9    12    1
    16    12    13   ar
    17    13    14   ar
    18    14    17    1
    19    17    18   ar
    20    18    19   ar
    21    19    20   ar
    22    20    21   ar
    23    21    22   ar
    24    14    15   ar
    25    15    16   ar
    26     9    10   am
    27    10    11    2
    28    29    30   ar
    29    30    31   ar
    30    31    32   ar
    31    32    33   ar
    32    33    34    1
    33    34    35    1
    34    35    36    1
    35    36    37    2
    36    33    28   ar
    37     6     1    1
    38    16    12   ar
    39    36    32    1
    40    10     4    1
    41    22    17   ar
    42    25    26    1
@<TRIPOS>MOLECULE
*****
 37 42 0 0 0
SMALL
GASTEIGER

@<TRIPOS>ATOM
      1 N         143.5527  140.2308  163.6641 N.3     1  UNL1       -0.2703
      2 C         142.8849  138.9708  163.1989 C.3     1  UNL1        0.0727
      3 C         142.7800  138.6753  161.7320 C.3     1  UNL1        0.0260
      4 C         143.3428  139.6397  160.7305 C.3     1  UNL1        0.0737
      5 C         144.0106  140.8997  161.1958 C.3     1  UNL1        0.0260
      6 C         144.1155  141.1952  162.6626 C.3     1  UNL1        0.0727
      7 C         143.8560  140.5050  159.6178 C.3     1  UNL1        0.0306
      8 C         143.5366  139.8270  158.3184 C.3     1  UNL1        0.0992
      9 N         142.8261  138.5427  158.6280 N.am    1  UNL1       -0.2523
     10 C         142.7063  138.4269  160.1187 C.2     1  UNL1        0.2289
     11 O         142.0631  137.2969  160.8665 O.2     1  UNL1       -0.2745
     12 C         142.3236  137.5487  157.6234 C.ar    1  UNL1        0.1034
     13 C         143.0461  136.3169  157.1644 C.ar    1  UNL1        0.0428
     14 C         142.1794  135.6189  156.1586 C.ar    1  UNL1        0.0909
     15 N         140.9212  136.4193  155.9959 N.ar    1  UNL1       -0.2079
     16 S         141.0104  137.6120  156.9012 S.2     1  UNL1        0.0282
     17 C         142.5123  134.3442  155.4413 C.ar    1  UNL1        0.0183
     18 C         141.8823  134.0442  154.1135 C.ar    1  UNL1        0.0015
     19 C         142.2153  132.7695  153.3963 C.ar    1  UNL1        0.0000
     20 C         143.1783  131.7949  154.0069 C.ar    1  UNL1        0.0000
     21 C         143.8083  132.0950  155.3347 C.ar    1  UNL1        0.0000
     22 C         143.4753  133.3696  156.0519 C.ar    1  UNL1        0.0015
     23 C         143.6576  140.5264  165.1310 C.3     1  UNL1        0.1063
     24 C         142.7961  141.5895  165.7454 C.3     1  UNL1        0.1483
     25 O         142.8810  143.0028  165.2500 O.3     1  UNL1       -0.3786
     26 H         142.2629  143.5584  165.7501 H       1  UNL1        0.2108
     27 C         143.4664  142.3233  168.5760 C.3     1  UNL1        0.0306
     28 C         142.1848  141.6063  168.2705 C.ar    1  UNL1       -0.0238
     29 C         141.8496  141.2394  166.8552 C.ar    1  UNL1        0.0015
     30 C         140.5680  140.5223  166.5497 C.ar    1  UNL1       -0.0020
     31 C         139.6215  140.1722  167.6594 C.ar    1  UNL1        0.0060
     32 C         139.9567  140.5391  169.0747 C.ar    1  UNL1        0.0748
     33 C         141.2383  141.2562  169.3802 C.ar    1  UNL1        0.0233
     34 C         141.2986  141.4869  170.8611 C.3     1  UNL1        0.2352
     35 O         140.0543  140.9125  171.4709 O.3     1  UNL1       -0.4404
     36 C         139.2250  140.3268  170.3668 C.2     1  UNL1        0.3413
     37 O         137.8970  139.6478  170.5267 O.2     1  UNL1       -0.2449
@<TRIPOS>BOND
     1    27    28    1
     2    28    29   ar
     3    29    24    1
     4    24    25    1
     5    24    23    1
     6    23     1    1
     7     1     2    1
     8     2     3    1
     9     3     4    1
    10     4     5    1
    11     5     6    1
    12     4     7    1
    13     7     8    1
    14     8     9    1
    15     9    12    1
    16    12    13   ar
    17    13    14   ar
    18    14    17    1
    19    17    18   ar
    20    18    19   ar
    21    19    20   ar
    22    20    21   ar
    23    21    22   ar
    24    14    15   ar
    25    15    16   ar
    26     9    10   am
    27    10    11    2
    28    29    30   ar
    29    30    31   ar
    30    31    32   ar
    31    32    33   ar
    32    33    34    1
    33    34    35    1
    34    35    36    1
    35    36    37    2
    36    33    28   ar
    37     6     1    1
    38    16    12   ar
    39    36    32    1
    40    10     4    1
    41    22    17   ar
    42    25    26    1
@<TRIPOS>MOLECULE
*****
 37 42 0 0 0
SMALL
GASTEIGER

@<TRIPOS>ATOM
      1 N         142.8384  138.3396  157.7391 N.3     1  UNL1       -0.2703
      2 C         142.3961  137.7613  159.0506 C.3     1  UNL1        0.0727
      3 C         142.6530  138.5097  160.3249 C.3     1  UNL1        0.0260
      4 C         143.3520  139.8363  160.2878 C.3     1  UNL1        0.0737
      5 C         143.7943  140.4145  158.9763 C.3     1  UNL1        0.0260
      6 C         143.5375  139.6662  157.7020 C.3     1  UNL1        0.0727
      7 C         144.0361  141.1659  160.4069 C.3     1  UNL1        0.0306
      8 C         144.0767  141.5378  161.8596 C.3     1  UNL1        0.0992
      9 N         143.4178  140.4380  162.6382 N.am    1  UNL1       -0.2523
     10 C         142.9699  139.3864  161.6668 C.2     1  UNL1        0.2289
     11 O         142.2638  138.1092  162.0135 O.2     1  UNL1       -0.2745
     12 C         143.2382  140.3970  164.1268 C.ar    1  UNL1        0.1034
     13 C         142.7002  141.5065  164.9808 C.ar    1  UNL1        0.0428
     14 C         142.6946  141.0345  166.4046 C.ar    1  UNL1        0.0909
     15 N         143.2291  139.6332  166.4306 N.ar    1  UNL1       -0.2079
     16 S         143.5651  139.2393  165.0227 S.2     1  UNL1        0.0282
     17 C         142.2351  141.8250  167.5938 C.ar    1  UNL1        0.0183
     18 C         143.1640  142.0486  168.7501 C.ar    1  UNL1        0.0015
     19 C         142.7045  142.8391  169.9393 C.ar    1  UNL1        0.0000
     20 C         141.3162  143.4060  169.9721 C.ar    1  UNL1        0.0000
     21 C         140.3873  143.1824  168.8156 C.ar    1  UNL1        0.0000
     22 C         140.8468  142.3919  167.6265 C.ar    1  UNL1        0.0015
     23 C         142.5816  137.5912  156.4647 C.3     1  UNL1        0.1063
     24 C         143.6177  136.6500  155.9258 C.3     1  UNL1        0.1483
     25 O         144.9057  137.1874  155.3759 O.3     1  UNL1       -0.3786
     26 H         145.4594  136.4515  155.0715 H       1  UNL1        0.2108
     27 C         142.2914  135.3366  153.5772 C.3     1  UNL1        0.0306
     28 C         142.7029  134.5146  154.7625 C.ar    1  UNL1       -0.0238
     29 C         143.3660  135.1713  155.9368 C.ar    1  UNL1        0.0015
     30 C         143.7774  134.3493  157.1222 C.ar    1  UNL1       -0.0020
     31 C         143.5257  132.8706  157.1332 C.ar    1  UNL1        0.0060
     32 C         142.8626  132.2139  155.9590 C.ar    1  UNL1        0.0748
     33 C         142.4512  133.0359  154.7736 C.ar    1  UNL1        0.0233
     34 C         141.8217  132.1174  153.7686 C.3     1  UNL1        0.2352
     35 O         141.8441  130.7277  154.3328 O.3     1  UNL1       -0.4404
     36 C         142.4874  130.7874  155.6865 C.2     1  UNL1        0.3413
     37 O         142.7155  129.6247  156.6063 O.2     1  UNL1       -0.2449
@<TRIPOS>BOND
     1    27    28    1
     2    28    29   ar
     3    29    24    1
     4    24    25    1
     5    24    23    1
     6    23     1    1
     7     1     2    1
     8     2     3    1
     9     3     4    1
    10     4     5    1
    11     5     6    1
    12     4     7    1
    13     7     8    1
    14     8     9    1
    15     9    12    1
    16    12    13   ar
    17    13    14   ar
    18    14    17    1
    19    17    18   ar
    20    18    19   ar
    21    19    20   ar
    22    20    21   ar
    23    21    22   ar
    24    14    15   ar
    25    15    16   ar
    26     9    10   am
    27    10    11    2
    28    29    30   ar
    29    30    31   ar
    30    31    32   ar
    31    32    33   ar
    32    33    34    1
    33    34    35    1
    34    35    36    1
    35    36    37    2
    36    33    28   ar
    37     6     1    1
    38    16    12   ar
    39    36    32    1
    40    10     4    1
    41    22    17   ar
    42    25    26    1
@<TRIPOS>MOLECULE
*****
 37 42 0 0 0
SMALL
GASTEIGER

@<TRIPOS>ATOM
      1 N         142.4413  139.1892  165.1975 N.3     1  UNL1       -0.2703
      2 C         141.6111  138.3335  164.2872 C.3     1  UNL1        0.0727
      3 C         141.9283  138.2693  162.8226 C.3     1  UNL1        0.0260
      4 C         143.0756  139.0607  162.2682 C.3     1  UNL1        0.0737
      5 C         143.9057  139.9164  163.1785 C.3     1  UNL1        0.0260
      6 C         143.5886  139.9806  164.6431 C.3     1  UNL1        0.0727
      7 C         144.1856  139.7923  161.5735 C.3     1  UNL1        0.0306
      8 C         144.1344  139.4374  160.1169 C.3     1  UNL1        0.0992
      9 N         142.9927  138.4864  159.9115 N.am    1  UNL1       -0.2523
     10 C         142.3383  138.2536  161.2410 C.2     1  UNL1        0.2289
     11 O         141.1545  137.3691  161.4982 O.2     1  UNL1       -0.2745
     12 C         142.5782  137.8755  158.6058 C.ar    1  UNL1        0.1034
     13 C         142.9255  136.4968  158.1278 C.ar    1  UNL1        0.0428
     14 C         142.3056  136.3052  156.7754 C.ar    1  UNL1        0.0909
     15 N         141.5751  137.5655  156.4175 N.ar    1  UNL1       -0.2079
     16 S         141.7436  138.5360  157.5488 S.2     1  UNL1        0.0282
     17 C         142.3995  135.0701  155.9293 C.ar    1  UNL1        0.0183
     18 C         142.0447  135.1297  154.4732 C.ar    1  UNL1        0.0015
     19 C         142.1387  133.8946  153.6271 C.ar    1  UNL1        0.0000
     20 C         142.5875  132.5999  154.2372 C.ar    1  UNL1        0.0000
     21 C         142.9424  132.5403  155.6935 C.ar    1  UNL1        0.0000
     22 C         142.8484  133.7754  156.5395 C.ar    1  UNL1        0.0015
     23 C         142.1242  139.2534  166.6623 C.3     1  UNL1        0.1063
     24 C         141.1032  140.2298  167.1665 C.3     1  UNL1        0.1483
     25 O         140.6326  140.1554  168.5888 O.3     1  UNL1       -0.3786
     26 H         139.9780  140.8529  168.7496 H       1  UNL1        0.2108
     27 C         138.5137  139.7575  165.7272 C.3     1  UNL1        0.0306
     28 C         139.2581  141.0445  165.5287 C.ar    1  UNL1       -0.0238
     29 C         140.5529  141.2807  166.2483 C.ar    1  UNL1        0.0015
     30 C         141.2973  142.5677  166.0499 C.ar    1  UNL1       -0.0020
     31 C         140.7470  143.6186  165.1319 C.ar    1  UNL1        0.0060
     32 C         139.4523  143.3824  164.4123 C.ar    1  UNL1        0.0748
     33 C         138.7079  142.0953  164.6107 C.ar    1  UNL1        0.0233
     34 C         137.4647  142.1450  163.7727 C.3     1  UNL1        0.2352
     35 O         137.4408  143.4627  163.0564 O.3     1  UNL1       -0.4404
     36 C         138.6692  144.2274  163.4517 C.2     1  UNL1        0.3413
     37 O         139.0480  145.5968  162.9708 O.2     1  UNL1       -0.2449
@<TRIPOS>BOND
     1    27    28    1
     2    28    29   ar
     3    29    24    1
     4    24    25    1
     5    24    23    1
     6    23     1    1
     7     1     2    1
     8     2     3    1
     9     3     4    1
    10     4     5    1
    11     5     6    1
    12     4     7    1
    13     7     8    1
    14     8     9    1
    15     9    12    1
    16    12    13   ar
    17    13    14   ar
    18    14    17    1
    19    17    18   ar
    20    18    19   ar
    21    19    20   ar
    22    20    21   ar
    23    21    22   ar
    24    14    15   ar
    25    15    16   ar
    26     9    10   am
    27    10    11    2
    28    29    30   ar
    29    30    31   ar
    30    31    32   ar
    31    32    33   ar
    32    33    34    1
    33    34    35    1
    34    35    36    1
    35    36    37    2
    36    33    28   ar
    37     6     1    1
    38    16    12   ar
    39    36    32    1
    40    10     4    1
    41    22    17   ar
    42    25    26    1
@<TRIPOS>MOLECULE
*****
 37 42 0 0 0
SMALL
GASTEIGER

@<TRIPOS>ATOM
      1 N         141.7569  137.8319  157.2124 N.3     1  UNL1       -0.2703
      2 C         142.6543  137.8263  158.4142 C.3     1  UNL1        0.0727
      3 C         142.1001  138.1674  159.7656 C.3     1  UNL1        0.0260
      4 C         140.6484  138.5141  159.9152 C.3     1  UNL1        0.0737
      5 C         139.7509  138.5196  158.7134 C.3     1  UNL1        0.0260
      6 C         140.3052  138.1786  157.3620 C.3     1  UNL1        0.0727
      7 C         139.2253  138.8791  160.2181 C.3     1  UNL1        0.0306
      8 C         139.1173  139.1406  161.6913 C.3     1  UNL1        0.0992
      9 N         140.4737  138.9372  162.2988 N.am    1  UNL1       -0.2523
     10 C         141.4199  138.5500  161.2012 C.2     1  UNL1        0.2289
     11 O         142.8811  138.2512  161.3613 O.2     1  UNL1       -0.2745
     12 C         140.8225  139.0936  163.7492 C.ar    1  UNL1        0.1034
     13 C         140.2039  140.0708  164.7044 C.ar    1  UNL1        0.0428
     14 C         140.8503  139.8814  166.0446 C.ar    1  UNL1        0.0909
     15 N         141.8684  138.7872  165.9179 N.ar    1  UNL1       -0.2079
     16 S         141.8512  138.3003  164.4991 S.2     1  UNL1        0.0282
     17 C         140.5341  140.6512  167.2927 C.ar    1  UNL1        0.0183
     18 C         139.7559  140.0010  168.3980 C.ar    1  UNL1        0.0015
     19 C         139.4397  140.7707  169.6460 C.ar    1  UNL1        0.0000
     20 C         139.9017  142.1906  169.7888 C.ar    1  UNL1        0.0000
     21 C         140.6799  142.8408  168.6834 C.ar    1  UNL1        0.0000
     22 C         140.9961  142.0711  167.4354 C.ar    1  UNL1        0.0015
     23 C         142.3111  137.4908  155.8608 C.3     1  UNL1        0.1063
     24 C         143.4892  136.5699  155.7440 C.3     1  UNL1        0.1483
     25 O         144.8587  137.1312  155.5002 O.3     1  UNL1       -0.3786
     26 H         145.5013  136.4062  155.4512 H       1  UNL1        0.2108
     27 C         142.2079  135.0263  153.5133 C.3     1  UNL1        0.0306
     28 C         142.6573  134.3157  154.7555 C.ar    1  UNL1       -0.0238
     29 C         143.2980  135.0875  155.8708 C.ar    1  UNL1        0.0015
     30 C         143.7474  134.3769  157.1131 C.ar    1  UNL1       -0.0020
     31 C         143.5561  132.8946  157.2400 C.ar    1  UNL1        0.0060
     32 C         142.9155  132.1229  156.1247 C.ar    1  UNL1        0.0748
     33 C         142.4661  132.8334  154.8825 C.ar    1  UNL1        0.0233
     34 C         141.8704  131.8153  153.9559 C.3     1  UNL1        0.2352
     35 O         141.9517  130.4755  154.6254 O.3     1  UNL1       -0.4404
     36 C         142.5975  130.6656  155.9658 C.2     1  UNL1        0.3413
     37 O         142.8765  129.5876  156.9709 O.2     1  UNL1       -0.2449
@<TRIPOS>BOND
     1    27    28    1
     2    28    29   ar
     3    29    24    1
     4    24    25    1
     5    24    23    1
     6    23     1    1
     7     1     2    1
     8     2     3    1
     9     3     4    1
    10     4     5    1
    11     5     6    1
    12     4     7    1
    13     7     8    1
    14     8     9    1
    15     9    12    1
    16    12    13   ar
    17    13    14   ar
    18    14    17    1
    19    17    18   ar
    20    18    19   ar
    21    19    20   ar
    22    20    21   ar
    23    21    22   ar
    24    14    15   ar
    25    15    16   ar
    26     9    10   am
    27    10    11    2
    28    29    30   ar
    29    30    31   ar
    30    31    32   ar
    31    32    33   ar
    32    33    34    1
    33    34    35    1
    34    35    36    1
    35    36    37    2
    36    33    28   ar
    37     6     1    1
    38    16    12   ar
    39    36    32    1
    40    10     4    1
    41    22    17   ar
    42    25    26    1
@<TRIPOS>MOLECULE
*****
 37 42 0 0 0
SMALL
GASTEIGER

@<TRIPOS>ATOM
      1 N         138.3803  139.8756  163.5411 N.3     1  UNL1       -0.2703
      2 C         138.0280  141.2214  162.9801 C.3     1  UNL1        0.0727
      3 C         138.1100  141.4626  161.5019 C.3     1  UNL1        0.0260
      4 C         138.5443  140.3580  160.5847 C.3     1  UNL1        0.0737
      5 C         138.8966  139.0122  161.1457 C.3     1  UNL1        0.0260
      6 C         138.8146  138.7710  162.6239 C.3     1  UNL1        0.0727
      7 C         138.9599  139.3552  159.5494 C.3     1  UNL1        0.0306
      8 C         138.8976  140.0218  158.2071 C.3     1  UNL1        0.0992
      9 N         138.4434  141.4366  158.4128 N.am    1  UNL1       -0.2523
     10 C         138.2251  141.6443  159.8822 C.2     1  UNL1        0.2289
     11 O         137.7679  142.9152  160.5346 O.2     1  UNL1       -0.2745
     12 C         138.2428  142.4632  157.3378 C.ar    1  UNL1        0.1034
     13 C         139.1668  143.6021  157.0229 C.ar    1  UNL1        0.0428
     14 C         138.5781  144.3741  155.8795 C.ar    1  UNL1        0.0909
     15 N         137.2902  143.7123  155.4876 N.ar    1  UNL1       -0.2079
     16 S         137.0831  142.5313  156.3890 S.2     1  UNL1        0.0282
     17 C         139.1727  145.5938  155.2400 C.ar    1  UNL1        0.0183
     18 C         138.7244  146.9595  155.6686 C.ar    1  UNL1        0.0015
     19 C         139.3191  148.1791  155.0292 C.ar    1  UNL1        0.0000
     20 C         140.3621  148.0330  153.9611 C.ar    1  UNL1        0.0000
     21 C         140.8104  146.6672  153.5325 C.ar    1  UNL1        0.0000
     22 C         140.2158  145.4476  154.1720 C.ar    1  UNL1        0.0015
     23 C         138.2983  139.6344  165.0193 C.3     1  UNL1        0.1063
     24 C         139.5309  139.2597  165.7876 C.3     1  UNL1        0.1483
     25 O         140.4443  138.1907  165.2651 O.3     1  UNL1       -0.3786
     26 H         141.1874  138.0727  165.8773 H       1  UNL1        0.2108
     27 C         141.9315  141.0492  165.9745 C.3     1  UNL1        0.0306
     28 C         141.0505  140.8487  167.1718 C.ar    1  UNL1       -0.0238
     29 C         139.8502  139.9540  167.0784 C.ar    1  UNL1        0.0015
     30 C         138.9692  139.7535  168.2757 C.ar    1  UNL1       -0.0020
     31 C         139.2884  140.4478  169.5664 C.ar    1  UNL1        0.0060
     32 C         140.4886  141.3425  169.6599 C.ar    1  UNL1        0.0748
     33 C         141.3697  141.5430  168.4625 C.ar    1  UNL1        0.0233
     34 C         142.4763  142.4774  168.8526 C.3     1  UNL1        0.2352
     35 O         142.2792  142.8545  170.2910 O.3     1  UNL1       -0.4404
     36 C         141.0508  142.1531  170.7899 C.2     1  UNL1        0.3413
     37 O         140.4839  142.2459  172.1756 O.2     1  UNL1       -0.2449
@<TRIPOS>BOND
     1    27    28    1
     2    28    29   ar
     3    29    24    1
     4    24    25    1
     5    24    23    1
     6    23     1    1
     7     1     2    1
     8     2     3    1
     9     3     4    1
    10     4     5    1
    11     5     6    1
    12     4     7    1
    13     7     8    1
    14     8     9    1
    15     9    12    1
    16    12    13   ar
    17    13    14   ar
    18    14    17    1
    19    17    18   ar
    20    18    19   ar
    21    19    20   ar
    22    20    21   ar
    23    21    22   ar
    24    14    15   ar
    25    15    16   ar
    26     9    10   am
    27    10    11    2
    28    29    30   ar
    29    30    31   ar
    30    31    32   ar
    31    32    33   ar
    32    33    34    1
    33    34    35    1
    34    35    36    1
    35    36    37    2
    36    33    28   ar
    37     6     1    1
    38    16    12   ar
    39    36    32    1
    40    10     4    1
    41    22    17   ar
    42    25    26    1
