@<TRIPOS>MOLECULE
*****
 37 41 0 0 0
SMALL
GASTEIGER

@<TRIPOS>ATOM
      1 C         142.1040  144.4310  163.0389 C.ar    1  UNL1        0.1533
      2 C         142.2493  143.6680  164.3222 C.ar    1  UNL1        0.0527
      3 C         141.0736  143.5150  165.2411 C.ar    1  UNL1        0.0511
      4 C         139.7526  144.1250  164.8768 C.ar    1  UNL1        0.0160
      5 C         139.6073  144.8880  163.5935 C.ar    1  UNL1        0.0190
      6 C         140.7830  145.0410  162.6746 C.ar    1  UNL1        0.0850
      7 N         141.2190  142.7520  166.5243 N.pl3   1  UNL1       -0.3040
      8 C         142.2913  141.7120  166.6610 C.3     1  UNL1        0.1123
      9 C         142.4368  140.9489  167.9443 C.3     1  UNL1        0.1149
     10 N         141.5100  141.2259  169.0907 N.am    1  UNL1       -0.2740
     11 C         141.6554  140.4629  170.3740 C.2     1  UNL1        0.2557
     12 O         140.7286  140.7398  171.5204 O.2     1  UNL1       -0.2722
     13 C         140.4377  142.2659  168.9539 C.3     1  UNL1        0.1149
     14 C         140.2923  143.0289  167.6708 C.3     1  UNL1        0.1123
     15 C         142.7277  139.4229  170.5107 C.3     1  UNL1        0.2232
     16 O         143.8831  139.6545  171.4388 O.3     1  UNL1       -0.3737
     17 H         144.4167  140.3958  171.1121 H       1  UNL1        0.2110
     18 C         144.4476  143.6498  162.2346 C.3     1  UNL1        0.2525
     19 O         143.2797  144.5839  162.1200 O.3     1  UNL1       -0.4701
     20 N         140.6375  145.8040  161.3914 N.pl3   1  UNL1       -0.2802
     21 H         140.4860  146.7765  161.4114 H       1  UNL1        0.1552
     22 C         140.7230  145.0852  160.0775 C.ar    1  UNL1        0.2208
     23 N         141.8236  145.4142  159.1129 N.ar    1  UNL1       -0.2111
     24 C         141.9091  144.6955  157.7991 C.ar    1  UNL1        0.1147
     25 C         140.8939  143.6478  157.4499 C.ar    1  UNL1        0.0960
     26 CL        140.9794  142.9290  156.1361 Cl      1  UNL1       -0.0790
     27 C         139.7933  143.3188  158.4146 C.ar    1  UNL1        0.1138
     28 N         139.7079  144.0376  159.7284 N.ar    1  UNL1       -0.2111
     29 C         138.7782  142.2712  158.0654 C.ar    1  UNL1        0.1031
     30 C         138.5994  140.9518  158.7563 C.ar    1  UNL1        0.1196
     31 N         137.4743  140.2242  158.0819 N.ar    1  UNL1       -0.2248
     32 C         136.9579  141.0938  156.9742 C.ar    1  UNL1        0.1479
     33 C         135.8579  140.8971  155.9735 C.ar    1  UNL1        0.0374
     34 C         135.5638  141.9656  154.9626 C.ar    1  UNL1        0.0046
     35 C         136.3697  143.2307  154.9525 C.ar    1  UNL1        0.0191
     36 C         137.4696  143.4274  155.9531 C.ar    1  UNL1        0.0815
     37 N         137.7637  142.3589  156.9640 N.ar    1  UNL1       -0.2874
@<TRIPOS>BOND
     1    18    19    1
     2    19     1    1
     3     1     2   ar
     4     2     3   ar
     5     3     7    1
     6     7     8    1
     7     8     9    1
     8     9    10    1
     9    10    11   am
    10    11    12    2
    11    11    15    1
    12    15    16    1
    13    10    13    1
    14    13    14    1
    15     3     4   ar
    16     4     5   ar
    17     5     6   ar
    18     6    20    1
    19    20    22    1
    20    22    23   ar
    21    23    24   ar
    22    24    25   ar
    23    25    26    1
    24    25    27   ar
    25    27    29    1
    26    29    30   ar
    27    30    31   ar
    28    31    32   ar
    29    32    33   ar
    30    33    34   ar
    31    34    35   ar
    32    35    36   ar
    33    36    37   ar
    34    27    28   ar
    35     6     1   ar
    36    28    22   ar
    37    14     7    1
    38    37    29   ar
    39    37    32   ar
    40    16    17    1
    41    20    21    1
@<TRIPOS>MOLECULE
*****
 37 41 0 0 0
SMALL
GASTEIGER

@<TRIPOS>ATOM
      1 C         137.9795  140.8924  163.3078 C.ar    1  UNL1        0.1533
      2 C         138.6529  141.3088  164.5819 C.ar    1  UNL1        0.0527
      3 C         139.3875  140.2948  165.4080 C.ar    1  UNL1        0.0511
      4 C         139.4487  138.8646  164.9600 C.ar    1  UNL1        0.0160
      5 C         138.7753  138.4483  163.6859 C.ar    1  UNL1        0.0190
      6 C         138.0407  139.4622  162.8598 C.ar    1  UNL1        0.0850
      7 N         140.0609  140.7112  166.6820 N.pl3   1  UNL1       -0.3040
      8 C         141.2221  141.6599  166.6411 C.3     1  UNL1        0.1123
      9 C         141.8956  142.0763  167.9152 C.3     1  UNL1        0.1149
     10 N         141.4078  141.5441  169.2299 N.am    1  UNL1       -0.2740
     11 C         142.0812  141.9605  170.5040 C.2     1  UNL1        0.2557
     12 O         141.5935  141.4282  171.8189 O.2     1  UNL1       -0.2722
     13 C         140.2466  140.5954  169.2708 C.3     1  UNL1        0.1149
     14 C         139.5732  140.1790  167.9968 C.3     1  UNL1        0.1123
     15 C         143.2424  142.9092  170.4632 C.3     1  UNL1        0.2232
     16 O         143.1854  144.1977  171.2288 O.3     1  UNL1       -0.3737
     17 H         142.4969  144.7676  170.8519 H       1  UNL1        0.2110
     18 C         138.0100  142.9199  161.6835 C.3     1  UNL1        0.2525
     19 O         137.2449  141.9064  162.4818 O.3     1  UNL1       -0.4701
     20 N         137.3673  139.0458  161.5858 N.pl3   1  UNL1       -0.2802
     21 H         136.4852  138.6096  161.6151 H       1  UNL1        0.1552
     22 C         138.0378  139.2941  160.2672 C.ar    1  UNL1        0.2208
     23 N         139.3325  138.6094  159.9435 N.ar    1  UNL1       -0.2111
     24 C         140.0031  138.8576  158.6249 C.ar    1  UNL1        0.1147
     25 C         139.3788  139.7906  157.6299 C.ar    1  UNL1        0.0960
     26 CL        140.0493  140.0388  156.3113 Cl      1  UNL1       -0.0790
     27 C         138.0840  140.4753  157.9537 C.ar    1  UNL1        0.1138
     28 N         137.4136  140.2271  159.2722 N.ar    1  UNL1       -0.2111
     29 C         137.4598  141.4083  156.9587 C.ar    1  UNL1        0.1031
     30 C         136.1957  141.1605  156.1902 C.ar    1  UNL1        0.1196
     31 N         135.9448  142.3519  155.3141 N.ar    1  UNL1       -0.2248
     32 C         137.0537  143.3361  155.5412 C.ar    1  UNL1        0.1479
     33 C         137.3319  144.6880  154.9538 C.ar    1  UNL1        0.0374
     34 C         138.5464  145.4566  155.3829 C.ar    1  UNL1        0.0046
     35 C         139.4827  144.8734  156.3993 C.ar    1  UNL1        0.0191
     36 C         139.2046  143.5216  156.9867 C.ar    1  UNL1        0.0815
     37 N         137.9901  142.7529  156.5577 N.ar    1  UNL1       -0.2874
@<TRIPOS>BOND
     1    18    19    1
     2    19     1    1
     3     1     2   ar
     4     2     3   ar
     5     3     7    1
     6     7     8    1
     7     8     9    1
     8     9    10    1
     9    10    11   am
    10    11    12    2
    11    11    15    1
    12    15    16    1
    13    10    13    1
    14    13    14    1
    15     3     4   ar
    16     4     5   ar
    17     5     6   ar
    18     6    20    1
    19    20    22    1
    20    22    23   ar
    21    23    24   ar
    22    24    25   ar
    23    25    26    1
    24    25    27   ar
    25    27    29    1
    26    29    30   ar
    27    30    31   ar
    28    31    32   ar
    29    32    33   ar
    30    33    34   ar
    31    34    35   ar
    32    35    36   ar
    33    36    37   ar
    34    27    28   ar
    35     6     1   ar
    36    28    22   ar
    37    14     7    1
    38    37    29   ar
    39    37    32   ar
    40    16    17    1
    41    20    21    1
@<TRIPOS>MOLECULE
*****
 37 41 0 0 0
SMALL
GASTEIGER

@<TRIPOS>ATOM
      1 C         141.9669  138.1961  163.1291 C.ar    1  UNL1        0.1533
      2 C         141.4991  138.9374  164.3465 C.ar    1  UNL1        0.0527
      3 C         142.4507  139.8190  165.0996 C.ar    1  UNL1        0.0511
      4 C         143.8701  139.9595  164.6354 C.ar    1  UNL1        0.0160
      5 C         144.3379  139.2183  163.4181 C.ar    1  UNL1        0.0190
      6 C         143.3864  138.3366  162.6650 C.ar    1  UNL1        0.0850
      7 N         141.9828  140.5602  166.3168 N.pl3   1  UNL1       -0.3040
      8 C         142.1415  139.9459  167.6760 C.3     1  UNL1        0.1123
      9 C         141.6736  140.6870  168.8934 C.3     1  UNL1        0.1149
     10 N         141.0470  142.0424  168.7514 N.am    1  UNL1       -0.2740
     11 C         140.5790  142.7836  169.9687 C.2     1  UNL1        0.2557
     12 O         139.9524  144.1390  169.8268 O.2     1  UNL1       -0.2722
     13 C         140.8882  142.6567  167.3922 C.3     1  UNL1        0.1149
     14 C         141.3561  141.9156  166.1749 C.3     1  UNL1        0.1123
     15 C         140.7378  142.1693  171.3279 C.3     1  UNL1        0.2232
     16 O         142.0630  142.2296  172.0280 O.3     1  UNL1       -0.3737
     17 H         142.7130  141.7044  171.5356 H       1  UNL1        0.2110
     18 C         139.7926  137.9036  161.7374 C.3     1  UNL1        0.2525
     19 O         141.0153  137.3145  162.3760 O.3     1  UNL1       -0.4701
     20 N         143.8543  137.5954  161.4477 N.pl3   1  UNL1       -0.2802
     21 H         144.3560  136.7541  161.5463 H       1  UNL1        0.1552
     22 C         143.5578  138.1360  160.0803 C.ar    1  UNL1        0.2208
     23 N         143.9846  139.5268  159.7149 N.ar    1  UNL1       -0.2111
     24 C         143.6881  140.0674  158.3475 C.ar    1  UNL1        0.1147
     25 C         142.9648  139.2172  157.3455 C.ar    1  UNL1        0.0960
     26 CL        142.6683  139.7578  155.9781 Cl      1  UNL1       -0.0790
     27 C         142.5380  137.8263  157.7109 C.ar    1  UNL1        0.1138
     28 N         142.8345  137.2858  159.0783 N.ar    1  UNL1       -0.2111
     29 C         141.8148  136.9761  156.7089 C.ar    1  UNL1        0.1031
     30 C         140.4825  137.2819  156.0913 C.ar    1  UNL1        0.1196
     31 N         140.1412  136.1656  155.1493 N.ar    1  UNL1       -0.2248
     32 C         141.2625  135.1699  155.1847 C.ar    1  UNL1        0.1479
     33 C         141.4753  133.8719  154.4638 C.ar    1  UNL1        0.0374
     34 C         142.7225  133.0748  154.7068 C.ar    1  UNL1        0.0046
     35 C         143.7569  133.5757  155.6707 C.ar    1  UNL1        0.0191
     36 C         143.5440  134.8737  156.3916 C.ar    1  UNL1        0.0815
     37 N         142.2969  135.6708  156.1486 N.ar    1  UNL1       -0.2874
@<TRIPOS>BOND
     1    18    19    1
     2    19     1    1
     3     1     2   ar
     4     2     3   ar
     5     3     7    1
     6     7     8    1
     7     8     9    1
     8     9    10    1
     9    10    11   am
    10    11    12    2
    11    11    15    1
    12    15    16    1
    13    10    13    1
    14    13    14    1
    15     3     4   ar
    16     4     5   ar
    17     5     6   ar
    18     6    20    1
    19    20    22    1
    20    22    23   ar
    21    23    24   ar
    22    24    25   ar
    23    25    26    1
    24    25    27   ar
    25    27    29    1
    26    29    30   ar
    27    30    31   ar
    28    31    32   ar
    29    32    33   ar
    30    33    34   ar
    31    34    35   ar
    32    35    36   ar
    33    36    37   ar
    34    27    28   ar
    35     6     1   ar
    36    28    22   ar
    37    14     7    1
    38    37    29   ar
    39    37    32   ar
    40    16    17    1
    41    20    21    1
@<TRIPOS>MOLECULE
*****
 37 41 0 0 0
SMALL
GASTEIGER

@<TRIPOS>ATOM
      1 C         142.1080  144.2663  162.9462 C.ar    1  UNL1        0.1533
      2 C         142.2433  143.5159  164.2380 C.ar    1  UNL1        0.0527
      3 C         141.0933  143.4648  165.1997 C.ar    1  UNL1        0.0511
      4 C         139.8080  144.1641  164.8697 C.ar    1  UNL1        0.0160
      5 C         139.6727  144.9145  163.5779 C.ar    1  UNL1        0.0190
      6 C         140.8227  144.9656  162.6162 C.ar    1  UNL1        0.0850
      7 N         141.2286  142.7144  166.4914 N.pl3   1  UNL1       -0.3040
      8 C         142.2908  141.6660  166.6419 C.3     1  UNL1        0.1123
      9 C         142.4262  140.9155  167.9337 C.3     1  UNL1        0.1149
     10 N         141.4995  141.2135  169.0748 N.am    1  UNL1       -0.2740
     11 C         141.6348  140.4631  170.3666 C.2     1  UNL1        0.2557
     12 O         140.7081  140.7611  171.5078 O.2     1  UNL1       -0.2722
     13 C         140.4373  142.2619  168.9243 C.3     1  UNL1        0.1149
     14 C         140.3019  143.0124  167.6326 C.3     1  UNL1        0.1123
     15 C         142.6970  139.4147  170.5170 C.3     1  UNL1        0.2232
     16 O         143.9096  139.6905  171.3557 O.3     1  UNL1       -0.3737
     17 H         144.4341  140.3950  170.9440 H       1  UNL1        0.2110
     18 C         144.4775  143.4786  162.2284 C.3     1  UNL1        0.2525
     19 O         143.2581  144.3174  161.9846 O.3     1  UNL1       -0.4701
     20 N         140.6874  145.7160  161.3245 N.pl3   1  UNL1       -0.2802
     21 H         140.8862  146.6797  161.2919 H       1  UNL1        0.1552
     22 C         140.2492  144.9982  160.0824 C.ar    1  UNL1        0.2208
     23 N         139.4399  143.7398  160.1894 N.ar    1  UNL1       -0.2111
     24 C         139.0017  143.0220  158.9474 C.ar    1  UNL1        0.1147
     25 C         139.3728  143.5626  157.5983 C.ar    1  UNL1        0.0960
     26 CL        138.9346  142.8449  156.3562 Cl      1  UNL1       -0.0790
     27 C         140.1821  144.8211  157.4912 C.ar    1  UNL1        0.1138
     28 N         140.6202  145.5389  158.7333 N.ar    1  UNL1       -0.2111
     29 C         140.5531  145.3618  156.1421 C.ar    1  UNL1        0.1031
     30 C         141.4412  144.6902  155.1370 C.ar    1  UNL1        0.1196
     31 N         141.5381  145.5823  153.9350 N.ar    1  UNL1       -0.2248
     32 C         140.7100  146.8052  154.1973 C.ar    1  UNL1        0.1479
     33 C         140.4316  148.0252  153.3702 C.ar    1  UNL1        0.0374
     34 C         139.5444  149.1089  153.9073 C.ar    1  UNL1        0.0046
     35 C         138.9356  148.9726  155.2714 C.ar    1  UNL1        0.0191
     36 C         139.2140  147.7526  156.0985 C.ar    1  UNL1        0.0815
     37 N         140.1012  146.6689  155.5614 N.ar    1  UNL1       -0.2874
@<TRIPOS>BOND
     1    18    19    1
     2    19     1    1
     3     1     2   ar
     4     2     3   ar
     5     3     7    1
     6     7     8    1
     7     8     9    1
     8     9    10    1
     9    10    11   am
    10    11    12    2
    11    11    15    1
    12    15    16    1
    13    10    13    1
    14    13    14    1
    15     3     4   ar
    16     4     5   ar
    17     5     6   ar
    18     6    20    1
    19    20    22    1
    20    22    23   ar
    21    23    24   ar
    22    24    25   ar
    23    25    26    1
    24    25    27   ar
    25    27    29    1
    26    29    30   ar
    27    30    31   ar
    28    31    32   ar
    29    32    33   ar
    30    33    34   ar
    31    34    35   ar
    32    35    36   ar
    33    36    37   ar
    34    27    28   ar
    35     6     1   ar
    36    28    22   ar
    37    14     7    1
    38    37    29   ar
    39    37    32   ar
    40    16    17    1
    41    20    21    1
@<TRIPOS>MOLECULE
*****
 37 41 0 0 0
SMALL
GASTEIGER

@<TRIPOS>ATOM
      1 C         140.1882  143.9899  162.4954 C.ar    1  UNL1        0.1533
      2 C         140.2182  143.1668  163.7492 C.ar    1  UNL1        0.0527
      3 C         141.4585  143.1288  164.5919 C.ar    1  UNL1        0.0511
      4 C         142.6689  143.9138  164.1809 C.ar    1  UNL1        0.0160
      5 C         142.6389  144.7367  162.9272 C.ar    1  UNL1        0.0190
      6 C         141.3985  144.7748  162.0844 C.ar    1  UNL1        0.0850
      7 N         141.4884  142.3058  165.8456 N.pl3   1  UNL1       -0.3040
      8 C         140.3920  142.4442  166.8599 C.3     1  UNL1        0.1123
      9 C         140.4219  141.6212  168.1136 C.3     1  UNL1        0.1149
     10 N         141.5481  140.6599  168.3530 N.am    1  UNL1       -0.2740
     11 C         141.5780  139.8368  169.6068 C.2     1  UNL1        0.2557
     12 O         142.7043  138.8755  169.8462 O.2     1  UNL1       -0.2722
     13 C         142.6445  140.5215  167.3387 C.3     1  UNL1        0.1149
     14 C         142.6147  141.3445  166.0850 C.3     1  UNL1        0.1123
     15 C         140.4816  139.9752  170.6210 C.3     1  UNL1        0.2232
     16 O         140.7696  140.5928  171.9573 O.3     1  UNL1       -0.3737
     17 H         141.3780  140.0225  172.4527 H       1  UNL1        0.2110
     18 C         138.1130  142.7923  161.4908 C.3     1  UNL1        0.2525
     19 O         138.9479  144.0279  161.6527 O.3     1  UNL1       -0.4701
     20 N         141.3686  145.5978  160.8308 N.pl3   1  UNL1       -0.2802
     21 H         141.3125  146.5791  160.8874 H       1  UNL1        0.1552
     22 C         141.4242  144.9258  159.4909 C.ar    1  UNL1        0.2208
     23 N         142.6924  144.2681  159.0337 N.ar    1  UNL1       -0.2111
     24 C         142.7480  143.5961  157.6939 C.ar    1  UNL1        0.1147
     25 C         141.5353  143.5818  156.8111 C.ar    1  UNL1        0.0960
     26 CL        141.5908  142.9098  155.4712 Cl      1  UNL1       -0.0790
     27 C         140.2670  144.2396  157.2683 C.ar    1  UNL1        0.1138
     28 N         140.2115  144.9115  158.6081 N.ar    1  UNL1       -0.2111
     29 C         139.0543  144.2253  156.3855 C.ar    1  UNL1        0.1031
     30 C         138.6549  145.3003  155.4187 C.ar    1  UNL1        0.1196
     31 N         137.3819  144.8729  154.7503 N.ar    1  UNL1       -0.2248
     32 C         136.9946  143.5337  155.3040 C.ar    1  UNL1        0.1479
     33 C         135.8343  142.6270  155.0186 C.ar    1  UNL1        0.0374
     34 C         135.7076  141.3201  155.7437 C.ar    1  UNL1        0.0046
     35 C         136.7412  140.9199  156.7544 C.ar    1  UNL1        0.0191
     36 C         137.9016  141.8265  157.0398 C.ar    1  UNL1        0.0815
     37 N         138.0282  143.1335  156.3147 N.ar    1  UNL1       -0.2874
@<TRIPOS>BOND
     1    18    19    1
     2    19     1    1
     3     1     2   ar
     4     2     3   ar
     5     3     7    1
     6     7     8    1
     7     8     9    1
     8     9    10    1
     9    10    11   am
    10    11    12    2
    11    11    15    1
    12    15    16    1
    13    10    13    1
    14    13    14    1
    15     3     4   ar
    16     4     5   ar
    17     5     6   ar
    18     6    20    1
    19    20    22    1
    20    22    23   ar
    21    23    24   ar
    22    24    25   ar
    23    25    26    1
    24    25    27   ar
    25    27    29    1
    26    29    30   ar
    27    30    31   ar
    28    31    32   ar
    29    32    33   ar
    30    33    34   ar
    31    34    35   ar
    32    35    36   ar
    33    36    37   ar
    34    27    28   ar
    35     6     1   ar
    36    28    22   ar
    37    14     7    1
    38    37    29   ar
    39    37    32   ar
    40    16    17    1
    41    20    21    1
@<TRIPOS>MOLECULE
*****
 37 41 0 0 0
SMALL
GASTEIGER

@<TRIPOS>ATOM
      1 C         141.4572  138.0448  163.2234 C.ar    1  UNL1        0.1533
      2 C         141.1259  138.6851  164.5389 C.ar    1  UNL1        0.0527
      3 C         142.1976  139.3793  165.3261 C.ar    1  UNL1        0.0511
      4 C         143.6005  139.4331  164.7979 C.ar    1  UNL1        0.0160
      5 C         143.9317  138.7928  163.4826 C.ar    1  UNL1        0.0190
      6 C         142.8601  138.0986  162.6952 C.ar    1  UNL1        0.0850
      7 N         141.8662  140.0195  166.6415 N.pl3   1  UNL1       -0.3040
      8 C         140.7846  141.0558  166.7198 C.3     1  UNL1        0.1123
      9 C         140.4532  141.6962  168.0352 C.3     1  UNL1        0.1149
     10 N         141.2034  141.3002  169.2721 N.am    1  UNL1       -0.2740
     11 C         140.8721  141.9404  170.5876 C.2     1  UNL1        0.2557
     12 O         141.6223  141.5444  171.8247 O.2     1  UNL1       -0.2722
     13 C         142.2851  140.2638  169.1939 C.3     1  UNL1        0.1149
     14 C         142.6165  139.6235  167.8785 C.3     1  UNL1        0.1123
     15 C         139.7905  142.9768  170.6659 C.3     1  UNL1        0.2232
     16 O         140.0918  144.4034  170.3142 O.3     1  UNL1       -0.3737
     17 H         140.7156  144.7708  170.9598 H       1  UNL1        0.2110
     18 C         138.9439  137.6953  162.6658 C.3     1  UNL1        0.2525
     19 O         140.3856  137.3506  162.4362 O.3     1  UNL1       -0.4701
     20 N         143.1914  137.4584  161.3799 N.pl3   1  UNL1       -0.2802
     21 H         143.5401  136.5380  161.3544 H       1  UNL1        0.1552
     22 C         142.9916  138.2203  160.1033 C.ar    1  UNL1        0.2208
     23 N         142.9180  137.4878  158.7964 N.ar    1  UNL1       -0.2111
     24 C         142.7182  138.2498  157.5199 C.ar    1  UNL1        0.1147
     25 C         142.5920  139.7441  157.5503 C.ar    1  UNL1        0.0960
     26 CL        142.3922  140.5061  156.2738 Cl      1  UNL1       -0.0790
     27 C         142.6656  140.4766  158.8573 C.ar    1  UNL1        0.1138
     28 N         142.8654  139.7147  160.1337 N.ar    1  UNL1       -0.2111
     29 C         142.5394  141.9710  158.8877 C.ar    1  UNL1        0.1031
     30 C         143.3821  142.9429  158.1161 C.ar    1  UNL1        0.1196
     31 N         142.9118  144.3284  158.4466 N.ar    1  UNL1       -0.2248
     32 C         141.7785  144.2128  159.4224 C.ar    1  UNL1        0.1479
     33 C         140.9264  145.2460  160.0980 C.ar    1  UNL1        0.0374
     34 C         139.8441  144.8222  161.0461 C.ar    1  UNL1        0.0046
     35 C         139.6139  143.3653  161.3187 C.ar    1  UNL1        0.0191
     36 C         140.4660  142.3321  160.6432 C.ar    1  UNL1        0.0815
     37 N         141.5483  142.7559  159.6950 N.ar    1  UNL1       -0.2874
@<TRIPOS>BOND
     1    18    19    1
     2    19     1    1
     3     1     2   ar
     4     2     3   ar
     5     3     7    1
     6     7     8    1
     7     8     9    1
     8     9    10    1
     9    10    11   am
    10    11    12    2
    11    11    15    1
    12    15    16    1
    13    10    13    1
    14    13    14    1
    15     3     4   ar
    16     4     5   ar
    17     5     6   ar
    18     6    20    1
    19    20    22    1
    20    22    23   ar
    21    23    24   ar
    22    24    25   ar
    23    25    26    1
    24    25    27   ar
    25    27    29    1
    26    29    30   ar
    27    30    31   ar
    28    31    32   ar
    29    32    33   ar
    30    33    34   ar
    31    34    35   ar
    32    35    36   ar
    33    36    37   ar
    34    27    28   ar
    35     6     1   ar
    36    28    22   ar
    37    14     7    1
    38    37    29   ar
    39    37    32   ar
    40    16    17    1
    41    20    21    1
@<TRIPOS>MOLECULE
*****
 37 41 0 0 0
SMALL
GASTEIGER

@<TRIPOS>ATOM
      1 C         137.9279  140.8854  162.9480 C.ar    1  UNL1        0.1533
      2 C         138.5399  141.3350  164.2417 C.ar    1  UNL1        0.0527
      3 C         139.2103  140.3386  165.1405 C.ar    1  UNL1        0.0511
      4 C         139.2688  138.8927  164.7456 C.ar    1  UNL1        0.0160
      5 C         138.6569  138.4432  163.4520 C.ar    1  UNL1        0.0190
      6 C         137.9865  139.4395  162.5532 C.ar    1  UNL1        0.0850
      7 N         139.8222  140.7883  166.4341 N.pl3   1  UNL1       -0.3040
      8 C         140.0557  139.7989  167.5370 C.3     1  UNL1        0.1123
      9 C         140.6676  140.2485  168.8308 C.3     1  UNL1        0.1149
     10 N         141.0459  141.6873  169.0213 N.am    1  UNL1       -0.2740
     11 C         141.6578  142.1370  170.3150 C.2     1  UNL1        0.2557
     12 O         142.0361  143.5760  170.5056 O.2     1  UNL1       -0.2722
     13 C         140.8123  142.6767  167.9183 C.3     1  UNL1        0.1149
     14 C         140.2005  142.2272  166.6247 C.3     1  UNL1        0.1123
     15 C         141.8913  141.1477  171.4180 C.3     1  UNL1        0.2232
     16 O         140.7317  140.6176  172.2080 O.3     1  UNL1       -0.3737
     17 H         140.3318  141.3388  172.7188 H       1  UNL1        0.2110
     18 C         138.0182  143.0759  161.5539 C.3     1  UNL1        0.2525
     19 O         137.2575  141.8817  162.0492 O.3     1  UNL1       -0.4701
     20 N         137.3746  138.9898  161.2596 N.pl3   1  UNL1       -0.2802
     21 H         136.5875  138.3986  161.2666 H       1  UNL1        0.1552
     22 C         137.9620  139.4410  159.9552 C.ar    1  UNL1        0.2208
     23 N         137.1852  140.3617  159.0614 N.ar    1  UNL1       -0.2111
     24 C         137.7726  140.8129  157.7570 C.ar    1  UNL1        0.1147
     25 C         139.1368  140.3434  157.3464 C.ar    1  UNL1        0.0960
     26 CL        139.7241  140.7945  156.0421 Cl      1  UNL1       -0.0790
     27 C         139.9136  139.4226  158.2403 C.ar    1  UNL1        0.1138
     28 N         139.3262  138.9715  159.5446 N.ar    1  UNL1       -0.2111
     29 C         141.2778  138.9531  157.8297 C.ar    1  UNL1        0.1031
     30 C         142.5834  139.5523  158.2613 C.ar    1  UNL1        0.1196
     31 N         143.6883  138.7715  157.6137 N.ar    1  UNL1       -0.2248
     32 C         143.0656  137.6896  156.7820 C.ar    1  UNL1        0.1479
     33 C         143.6627  136.6168  155.9203 C.ar    1  UNL1        0.0374
     34 C         142.7700  135.6563  155.1921 C.ar    1  UNL1        0.0046
     35 C         141.2801  135.7685  155.3256 C.ar    1  UNL1        0.0191
     36 C         140.6831  136.8413  156.1872 C.ar    1  UNL1        0.0815
     37 N         141.5758  137.8019  156.9154 N.ar    1  UNL1       -0.2874
@<TRIPOS>BOND
     1    18    19    1
     2    19     1    1
     3     1     2   ar
     4     2     3   ar
     5     3     7    1
     6     7     8    1
     7     8     9    1
     8     9    10    1
     9    10    11   am
    10    11    12    2
    11    11    15    1
    12    15    16    1
    13    10    13    1
    14    13    14    1
    15     3     4   ar
    16     4     5   ar
    17     5     6   ar
    18     6    20    1
    19    20    22    1
    20    22    23   ar
    21    23    24   ar
    22    24    25   ar
    23    25    26    1
    24    25    27   ar
    25    27    29    1
    26    29    30   ar
    27    30    31   ar
    28    31    32   ar
    29    32    33   ar
    30    33    34   ar
    31    34    35   ar
    32    35    36   ar
    33    36    37   ar
    34    27    28   ar
    35     6     1   ar
    36    28    22   ar
    37    14     7    1
    38    37    29   ar
    39    37    32   ar
    40    16    17    1
    41    20    21    1
@<TRIPOS>MOLECULE
*****
 37 41 0 0 0
SMALL
GASTEIGER

@<TRIPOS>ATOM
      1 C         141.8379  138.0266  163.0969 C.ar    1  UNL1        0.1533
      2 C         141.7262  138.6912  164.4370 C.ar    1  UNL1        0.0527
      3 C         142.8563  139.5311  164.9543 C.ar    1  UNL1        0.0511
      4 C         144.0981  139.7064  164.1314 C.ar    1  UNL1        0.0160
      5 C         144.2098  139.0419  162.7913 C.ar    1  UNL1        0.0190
      6 C         143.0797  138.2020  162.2740 C.ar    1  UNL1        0.0850
      7 N         142.7445  140.1956  166.2943 N.pl3   1  UNL1       -0.3040
      8 C         142.2495  139.4183  167.4779 C.3     1  UNL1        0.1123
      9 C         142.1377  140.0827  168.8181 C.3     1  UNL1        0.1149
     10 N         142.5208  141.5244  168.9746 N.am    1  UNL1       -0.2740
     11 C         142.4090  142.1890  170.3148 C.2     1  UNL1        0.2557
     12 O         142.7922  143.6307  170.4714 O.2     1  UNL1       -0.2722
     13 C         143.0158  142.3018  167.7911 C.3     1  UNL1        0.1149
     14 C         143.1276  141.6373  166.4509 C.3     1  UNL1        0.1123
     15 C         141.9141  141.4117  171.4984 C.3     1  UNL1        0.2232
     16 O         140.4930  141.5631  171.9541 O.3     1  UNL1       -0.3737
     17 H         140.3532  142.4651  172.2823 H       1  UNL1        0.2110
     18 C         139.4667  137.8427  162.0511 C.3     1  UNL1        0.2525
     19 O         140.7078  137.1867  162.5797 O.3     1  UNL1       -0.4701
     20 N         143.1915  137.5375  160.9339 N.pl3   1  UNL1       -0.2802
     21 H         143.5967  136.6432  160.8601 H       1  UNL1        0.1552
     22 C         142.6861  138.2354  159.7061 C.ar    1  UNL1        0.2208
     23 N         142.9778  137.6693  158.3480 N.ar    1  UNL1       -0.2111
     24 C         142.4723  138.3672  157.1202 C.ar    1  UNL1        0.1147
     25 C         141.6752  139.6312  157.2506 C.ar    1  UNL1        0.0960
     26 CL        141.1697  140.3291  156.0228 Cl      1  UNL1       -0.0790
     27 C         141.3835  140.1973  158.6088 C.ar    1  UNL1        0.1138
     28 N         141.8890  139.4993  159.8364 N.ar    1  UNL1       -0.2111
     29 C         140.5864  141.4612  158.7391 C.ar    1  UNL1        0.1031
     30 C         139.1803  141.5681  159.2505 C.ar    1  UNL1        0.1196
     31 N         138.7803  143.0131  159.2084 N.ar    1  UNL1       -0.2248
     32 C         139.9392  143.7994  158.6709 C.ar    1  UNL1        0.1479
     33 C         140.1222  145.2648  158.4081 C.ar    1  UNL1        0.0374
     34 C         141.4215  145.7710  157.8553 C.ar    1  UNL1        0.0046
     35 C         142.5377  144.8118  157.5652 C.ar    1  UNL1        0.0191
     36 C         142.3546  143.3465  157.8280 C.ar    1  UNL1        0.0815
     37 N         141.0554  142.8402  158.3809 N.ar    1  UNL1       -0.2874
@<TRIPOS>BOND
     1    18    19    1
     2    19     1    1
     3     1     2   ar
     4     2     3   ar
     5     3     7    1
     6     7     8    1
     7     8     9    1
     8     9    10    1
     9    10    11   am
    10    11    12    2
    11    11    15    1
    12    15    16    1
    13    10    13    1
    14    13    14    1
    15     3     4   ar
    16     4     5   ar
    17     5     6   ar
    18     6    20    1
    19    20    22    1
    20    22    23   ar
    21    23    24   ar
    22    24    25   ar
    23    25    26    1
    24    25    27   ar
    25    27    29    1
    26    29    30   ar
    27    30    31   ar
    28    31    32   ar
    29    32    33   ar
    30    33    34   ar
    31    34    35   ar
    32    35    36   ar
    33    36    37   ar
    34    27    28   ar
    35     6     1   ar
    36    28    22   ar
    37    14     7    1
    38    37    29   ar
    39    37    32   ar
    40    16    17    1
    41    20    21    1
@<TRIPOS>MOLECULE
*****
 37 41 0 0 0
SMALL
GASTEIGER

@<TRIPOS>ATOM
      1 C         140.5750  144.4534  163.1689 C.ar    1  UNL1        0.1533
      2 C         140.5029  143.6400  164.4272 C.ar    1  UNL1        0.0527
      3 C         141.6801  142.8149  164.8554 C.ar    1  UNL1        0.0511
      4 C         142.9294  142.8031  164.0254 C.ar    1  UNL1        0.0160
      5 C         143.0015  143.6165  162.7671 C.ar    1  UNL1        0.0190
      6 C         141.8243  144.4416  162.3388 C.ar    1  UNL1        0.0850
      7 N         141.6079  142.0017  166.1137 N.pl3   1  UNL1       -0.3040
      8 C         142.8154  141.2509  166.5917 C.3     1  UNL1        0.1123
      9 C         142.7432  140.4375  167.8501 C.3     1  UNL1        0.1149
     10 N         141.4638  140.3750  168.6303 N.am    1  UNL1       -0.2740
     11 C         141.3916  139.5617  169.8887 C.2     1  UNL1        0.2557
     12 O         140.1120  139.4992  170.6690 O.2     1  UNL1       -0.2722
     13 C         140.2563  141.1258  168.1523 C.3     1  UNL1        0.1149
     14 C         140.3284  141.9391  166.8940 C.3     1  UNL1        0.1123
     15 C         142.5990  138.8109  170.3666 C.3     1  UNL1        0.2232
     16 O         143.6388  139.5098  171.1914 O.3     1  UNL1       -0.3737
     17 H         144.0732  140.1910  170.6545 H       1  UNL1        0.2110
     18 C         138.0267  144.6707  162.7115 C.3     1  UNL1        0.2525
     19 O         139.3977  145.2785  162.7406 O.3     1  UNL1       -0.4701
     20 N         141.8965  145.2549  161.0805 N.pl3   1  UNL1       -0.2802
     21 H         142.4452  146.0718  161.0532 H       1  UNL1        0.1552
     22 C         141.1327  144.8235  159.8637 C.ar    1  UNL1        0.2208
     23 N         140.5269  143.4525  159.8055 N.ar    1  UNL1       -0.2111
     24 C         139.7631  143.0211  158.5888 C.ar    1  UNL1        0.1147
     25 C         139.6050  143.9608  157.4303 C.ar    1  UNL1        0.0960
     26 CL        138.8412  143.5294  156.2135 Cl      1  UNL1       -0.0790
     27 C         140.2108  145.3318  157.4885 C.ar    1  UNL1        0.1138
     28 N         140.9746  145.7631  158.7052 N.ar    1  UNL1       -0.2111
     29 C         140.0528  146.2715  156.3300 C.ar    1  UNL1        0.1031
     30 C         139.0759  147.4064  156.2422 C.ar    1  UNL1        0.1196
     31 N         139.2633  148.0774  154.9138 N.ar    1  UNL1       -0.2248
     32 C         140.3559  147.3572  154.1807 C.ar    1  UNL1        0.1479
     33 C         140.9696  147.5736  152.8292 C.ar    1  UNL1        0.0374
     34 C         142.0712  146.6738  152.3530 C.ar    1  UNL1        0.0046
     35 C         142.5591  145.5577  153.2282 C.ar    1  UNL1        0.0191
     36 C         141.9455  145.3413  154.5797 C.ar    1  UNL1        0.0815
     37 N         140.8439  146.2411  155.0559 N.ar    1  UNL1       -0.2874
@<TRIPOS>BOND
     1    18    19    1
     2    19     1    1
     3     1     2   ar
     4     2     3   ar
     5     3     7    1
     6     7     8    1
     7     8     9    1
     8     9    10    1
     9    10    11   am
    10    11    12    2
    11    11    15    1
    12    15    16    1
    13    10    13    1
    14    13    14    1
    15     3     4   ar
    16     4     5   ar
    17     5     6   ar
    18     6    20    1
    19    20    22    1
    20    22    23   ar
    21    23    24   ar
    22    24    25   ar
    23    25    26    1
    24    25    27   ar
    25    27    29    1
    26    29    30   ar
    27    30    31   ar
    28    31    32   ar
    29    32    33   ar
    30    33    34   ar
    31    34    35   ar
    32    35    36   ar
    33    36    37   ar
    34    27    28   ar
    35     6     1   ar
    36    28    22   ar
    37    14     7    1
    38    37    29   ar
    39    37    32   ar
    40    16    17    1
    41    20    21    1
