@<TRIPOS>MOLECULE
*****
 45 48 0 0 0
SMALL
GASTEIGER

@<TRIPOS>ATOM
      1 C         140.6089  141.2892  158.8619 C.3     1  UNL1        0.0791
      2 C         141.3536  142.1186  159.8658 C.ar    1  UNL1        0.0374
      3 C         141.5151  141.6263  161.2734 C.ar    1  UNL1        0.0023
      4 C         142.2598  142.4556  162.2773 C.ar    1  UNL1        0.0181
      5 C         142.4213  141.9633  163.6849 C.ar    1  UNL1        0.0082
      6 C         143.1660  142.7927  164.6887 C.ar    1  UNL1        0.0347
      7 BR        143.3275  142.3004  166.0964 Br      1  UNL1       -0.0490
      8 C         143.7492  144.1143  164.2848 C.ar    1  UNL1        0.0082
      9 C         143.5877  144.6066  162.8772 C.ar    1  UNL1        0.0197
     10 C         142.8431  143.7773  161.8734 C.ar    1  UNL1        0.0844
     11 N         142.6815  144.2696  160.4657 N.ar    1  UNL1       -0.2119
     12 C         141.9368  143.4402  159.4619 C.ar    1  UNL1        0.2211
     13 O         141.7753  143.9325  158.0542 O.3     1  UNL1       -0.4563
     14 C         142.8494  143.6709  157.0403 C.3     1  UNL1        0.2542
     15 C         141.2258  140.0336  158.3210 C.ar    1  UNL1        0.0036
     16 C         140.3502  138.9134  157.8428 C.ar    1  UNL1        0.0005
     17 C         140.9671  137.6578  157.3018 C.ar    1  UNL1        0.0340
     18 C         142.4596  137.5222  157.2390 C.ar    1  UNL1        0.1317
     19 N         143.3353  138.6423  157.7172 N.ar    1  UNL1       -0.2295
     20 C         142.7183  139.8980  158.2582 C.ar    1  UNL1        0.0964
     21 N         143.0765  136.2665  156.6980 N.pl3   1  UNL1       -0.2932
     22 C         143.5453  136.2143  155.2741 C.3     1  UNL1        0.0922
     23 C         142.6039  135.7799  154.1901 C.3     1  UNL1        0.0232
     24 C         143.2247  135.0630  157.5810 C.3     1  UNL1        0.0922
     25 C         143.8934  133.8265  157.0576 C.3     1  UNL1        0.0232
     26 C         139.2473  141.7156  158.3991 C.3     1  UNL1        0.1162
     27 O         139.7913  141.9589  157.0226 O.3     1  UNL1       -0.3820
     28 H         139.0785  142.2713  156.4437 H       1  UNL1        0.2107
     29 C         137.9203  139.8265  161.6272 C.ar    1  UNL1        0.2271
     30 C         138.4643  140.0698  160.2507 C.ar    1  UNL1        0.0559
     31 C         138.7032  141.4724  159.7757 C.ar    1  UNL1        0.0117
     32 C         138.3981  142.6317  160.6772 C.ar    1  UNL1        0.0559
     33 C         137.8540  142.3884  162.0537 C.ar    1  UNL1        0.2271
     34 N         137.6151  140.9859  162.5287 N.ar    1  UNL1       -0.1767
     35 O         137.6814  138.4239  162.1022 O.3     1  UNL1       -0.4602
     36 C         140.1823  137.8660  162.5310 C.3     1  UNL1        0.0512
     37 C         138.7357  137.7111  162.8960 C.3     1  UNL1        0.2072
     38 O         137.5488  143.5479  162.9553 O.3     1  UNL1       -0.4602
     39 C         138.5997  144.5830  163.2276 C.3     1  UNL1        0.2072
     40 C         139.7841  144.6491  164.1455 C.3     1  UNL1        0.0512
     41 C         137.8857  142.1420  157.9363 C.3     1  UNL1        0.0491
     42 C         137.2096  141.4069  156.8172 C.3     1  UNL1        0.0750
     43 N         137.1077  142.0368  155.4597 N.3     1  UNL1       -0.2702
     44 C         137.3826  141.2207  154.2316 C.3     1  UNL1        0.0897
     45 C         136.7308  143.4829  155.3303 C.3     1  UNL1        0.0897
@<TRIPOS>BOND
     1    36    37    1
     2    37    35    1
     3    35    29    1
     4    29    30   ar
     5    30    31   ar
     6    31    26    1
     7    26    27    1
     8    26    41    1
     9    41    42    1
    10    42    43    1
    11    43    44    1
    12    43    45    1
    13    26     1    1
    14     1    15    1
    15    15    16   ar
    16    16    17   ar
    17    17    18   ar
    18    18    21    1
    19    21    22    1
    20    22    23    1
    21    21    24    1
    22    24    25    1
    23    18    19   ar
    24    19    20   ar
    25     1     2    1
    26     2     3   ar
    27     3     4   ar
    28     4     5   ar
    29     5     6   ar
    30     6     7    1
    31     6     8   ar
    32     8     9   ar
    33     9    10   ar
    34    10    11   ar
    35    11    12   ar
    36    12    13    1
    37    13    14    1
    38    31    32   ar
    39    32    33   ar
    40    33    38    1
    41    38    39    1
    42    39    40    1
    43    33    34   ar
    44    34    29   ar
    45    20    15   ar
    46    12     2   ar
    47    10     4   ar
    48    27    28    1
@<TRIPOS>MOLECULE
*****
 45 48 0 0 0
SMALL
GASTEIGER

@<TRIPOS>ATOM
      1 C         140.6190  141.3940  158.9131 C.3     1  UNL1        0.0791
      2 C         141.3511  142.2201  159.9289 C.ar    1  UNL1        0.0374
      3 C         141.5353  141.7025  161.3246 C.ar    1  UNL1        0.0023
      4 C         142.2674  142.5286  162.3404 C.ar    1  UNL1        0.0181
      5 C         142.4516  142.0110  163.7361 C.ar    1  UNL1        0.0082
      6 C         143.1837  142.8370  164.7518 C.ar    1  UNL1        0.0347
      7 BR        143.3679  142.3194  166.1476 Br      1  UNL1       -0.0490
      8 C         143.7316  144.1807  164.3717 C.ar    1  UNL1        0.0082
      9 C         143.5474  144.6982  162.9760 C.ar    1  UNL1        0.0197
     10 C         142.8153  143.8722  161.9603 C.ar    1  UNL1        0.0844
     11 N         142.6311  144.3898  160.5645 N.ar    1  UNL1       -0.2119
     12 C         141.8990  143.5637  159.5488 C.ar    1  UNL1        0.2211
     13 O         141.7148  144.0813  158.1530 O.3     1  UNL1       -0.4563
     14 C         140.8984  145.3165  157.9128 C.3     1  UNL1        0.2542
     15 C         141.2396  140.1364  158.3810 C.ar    1  UNL1        0.0036
     16 C         140.3673  139.0201  157.8879 C.ar    1  UNL1        0.0005
     17 C         140.9879  137.7624  157.3559 C.ar    1  UNL1        0.0340
     18 C         142.4808  137.6210  157.3168 C.ar    1  UNL1        0.1317
     19 N         143.3530  138.7373  157.8099 N.ar    1  UNL1       -0.2295
     20 C         142.7323  139.9950  158.3421 C.ar    1  UNL1        0.0964
     21 N         143.1013  136.3634  156.7848 N.pl3   1  UNL1       -0.2932
     22 C         143.2512  135.1659  157.6756 C.3     1  UNL1        0.0922
     23 C         143.1233  133.7851  157.1038 C.3     1  UNL1        0.0232
     24 C         143.5721  136.3032  155.3619 C.3     1  UNL1        0.0922
     25 C         142.5810  136.1179  154.2512 C.3     1  UNL1        0.0232
     26 C         139.2663  141.8257  158.4295 C.3     1  UNL1        0.1162
     27 O         139.8279  142.0472  157.0564 O.3     1  UNL1       -0.3820
     28 H         139.1243  142.3582  156.4655 H       1  UNL1        0.2107
     29 C         137.8310  142.5558  162.0567 C.ar    1  UNL1        0.2271
     30 C         138.3927  142.7774  160.6836 C.ar    1  UNL1        0.0559
     31 C         138.7047  141.6041  159.8026 C.ar    1  UNL1        0.0117
     32 C         138.4550  140.2094  160.2948 C.ar    1  UNL1        0.0559
     33 C         137.8934  139.9878  161.6679 C.ar    1  UNL1        0.2271
     34 N         137.5814  141.1610  162.5489 N.ar    1  UNL1       -0.1767
     35 O         137.5190  143.7291  162.9377 O.3     1  UNL1       -0.4602
     36 C         139.6632  144.5398  164.1604 C.3     1  UNL1        0.0512
     37 C         138.2895  143.9395  164.2074 C.3     1  UNL1        0.2072
     38 O         137.6438  138.5930  162.1600 O.3     1  UNL1       -0.4602
     39 C         138.7687  137.7916  162.7453 C.3     1  UNL1        0.2072
     40 C         140.2495  137.7488  162.5109 C.3     1  UNL1        0.0512
     41 C         137.9136  142.2574  157.9459 C.3     1  UNL1        0.0491
     42 C         137.2765  141.5610  156.7800 C.3     1  UNL1        0.0750
     43 N         137.1942  142.2486  155.4494 N.3     1  UNL1       -0.2702
     44 C         136.9199  143.7217  155.3820 C.3     1  UNL1        0.0897
     45 C         137.3863  141.4629  154.1861 C.3     1  UNL1        0.0897
@<TRIPOS>BOND
     1    36    37    1
     2    37    35    1
     3    35    29    1
     4    29    30   ar
     5    30    31   ar
     6    31    26    1
     7    26    27    1
     8    26    41    1
     9    41    42    1
    10    42    43    1
    11    43    44    1
    12    43    45    1
    13    26     1    1
    14     1    15    1
    15    15    16   ar
    16    16    17   ar
    17    17    18   ar
    18    18    21    1
    19    21    22    1
    20    22    23    1
    21    21    24    1
    22    24    25    1
    23    18    19   ar
    24    19    20   ar
    25     1     2    1
    26     2     3   ar
    27     3     4   ar
    28     4     5   ar
    29     5     6   ar
    30     6     7    1
    31     6     8   ar
    32     8     9   ar
    33     9    10   ar
    34    10    11   ar
    35    11    12   ar
    36    12    13    1
    37    13    14    1
    38    31    32   ar
    39    32    33   ar
    40    33    38    1
    41    38    39    1
    42    39    40    1
    43    33    34   ar
    44    34    29   ar
    45    20    15   ar
    46    12     2   ar
    47    10     4   ar
    48    27    28    1
@<TRIPOS>MOLECULE
*****
 45 48 0 0 0
SMALL
GASTEIGER

@<TRIPOS>ATOM
      1 C         141.8543  141.4969  162.2935 C.3     1  UNL1        0.0791
      2 C         141.4553  141.8704  163.6905 C.ar    1  UNL1        0.0374
      3 C         142.4474  141.7561  164.8097 C.ar    1  UNL1        0.0023
      4 C         142.0484  142.1295  166.2066 C.ar    1  UNL1        0.0181
      5 C         143.0405  142.0152  167.3259 C.ar    1  UNL1        0.0082
      6 C         142.6414  142.3886  168.7227 C.ar    1  UNL1        0.0347
      7 BR        143.6335  142.2744  169.8421 Br      1  UNL1       -0.0490
      8 C         141.2504  142.8763  169.0004 C.ar    1  UNL1        0.0082
      9 C         140.2583  142.9906  167.8812 C.ar    1  UNL1        0.0197
     10 C         140.6573  142.6172  166.4843 C.ar    1  UNL1        0.0844
     11 N         139.6653  142.7315  165.3650 N.ar    1  UNL1       -0.2119
     12 C         140.0643  142.3581  163.9681 C.ar    1  UNL1        0.2211
     13 O         139.0722  142.4723  162.8488 O.3     1  UNL1       -0.4563
     14 C         137.6334  142.1187  163.0828 C.3     1  UNL1        0.2542
     15 C         141.6959  142.4873  161.1782 C.ar    1  UNL1        0.0036
     16 C         141.1121  142.0529  159.8666 C.ar    1  UNL1        0.0005
     17 C         140.9537  143.0433  158.7512 C.ar    1  UNL1        0.0340
     18 C         141.3792  144.4682  158.9475 C.ar    1  UNL1        0.1317
     19 N         141.9631  144.9027  160.2591 N.ar    1  UNL1       -0.2295
     20 C         142.1215  143.9122  161.3745 C.ar    1  UNL1        0.0964
     21 N         141.2209  145.4586  157.8322 N.pl3   1  UNL1       -0.2932
     22 C         139.9655  146.2726  157.7245 C.3     1  UNL1        0.0922
     23 C         139.4958  146.7530  156.3834 C.3     1  UNL1        0.0232
     24 C         142.3179  145.6351  156.8245 C.3     1  UNL1        0.0922
     25 C         142.4859  144.6381  155.7164 C.3     1  UNL1        0.0232
     26 C         142.4116  140.1331  162.0119 C.3     1  UNL1        0.1162
     27 O         143.7872  140.7195  161.8943 O.3     1  UNL1       -0.3820
     28 H         144.4236  140.0144  161.6973 H       1  UNL1        0.2107
     29 C         139.2726  138.1988  163.4800 C.ar    1  UNL1        0.2271
     30 C         140.6482  138.7852  163.3623 C.ar    1  UNL1        0.0559
     31 C         141.0360  139.5467  162.1296 C.ar    1  UNL1        0.0117
     32 C         140.0483  139.7217  161.0144 C.ar    1  UNL1        0.0559
     33 C         138.6727  139.1352  161.1320 C.ar    1  UNL1        0.2271
     34 N         138.2849  138.3738  162.3648 N.ar    1  UNL1       -0.1767
     35 O         138.8849  137.4374  164.7128 O.3     1  UNL1       -0.4602
     36 C         138.1135  139.6374  165.8595 C.3     1  UNL1        0.0512
     37 C         138.4360  138.1747  165.9396 C.3     1  UNL1        0.2072
     38 O         137.6848  139.3103  160.0168 O.3     1  UNL1       -0.4602
     39 C         137.8659  140.4178  159.0215 C.3     1  UNL1        0.2072
     40 C         138.3916  140.4821  157.6182 C.3     1  UNL1        0.0512
     41 C         142.9690  138.7692  161.7304 C.3     1  UNL1        0.0491
     42 C         143.8681  138.5557  160.5489 C.3     1  UNL1        0.0750
     43 N         143.4041  138.9375  159.1745 N.3     1  UNL1       -0.2702
     44 C         142.4337  138.0608  158.4401 C.3     1  UNL1        0.0897
     45 C         143.9105  140.1961  158.5346 C.3     1  UNL1        0.0897
@<TRIPOS>BOND
     1    36    37    1
     2    37    35    1
     3    35    29    1
     4    29    30   ar
     5    30    31   ar
     6    31    26    1
     7    26    27    1
     8    26    41    1
     9    41    42    1
    10    42    43    1
    11    43    44    1
    12    43    45    1
    13    26     1    1
    14     1    15    1
    15    15    16   ar
    16    16    17   ar
    17    17    18   ar
    18    18    21    1
    19    21    22    1
    20    22    23    1
    21    21    24    1
    22    24    25    1
    23    18    19   ar
    24    19    20   ar
    25     1     2    1
    26     2     3   ar
    27     3     4   ar
    28     4     5   ar
    29     5     6   ar
    30     6     7    1
    31     6     8   ar
    32     8     9   ar
    33     9    10   ar
    34    10    11   ar
    35    11    12   ar
    36    12    13    1
    37    13    14    1
    38    31    32   ar
    39    32    33   ar
    40    33    38    1
    41    38    39    1
    42    39    40    1
    43    33    34   ar
    44    34    29   ar
    45    20    15   ar
    46    12     2   ar
    47    10     4   ar
    48    27    28    1
@<TRIPOS>MOLECULE
*****
 45 48 0 0 0
SMALL
GASTEIGER

@<TRIPOS>ATOM
      1 C         140.6649  141.4611  161.4906 C.3     1  UNL1        0.0791
      2 C         140.3441  141.0375  162.8934 C.ar    1  UNL1        0.0374
      3 C         141.3396  141.2659  163.9920 C.ar    1  UNL1        0.0023
      4 C         141.0188  140.8423  165.3948 C.ar    1  UNL1        0.0181
      5 C         142.0142  141.0707  166.4934 C.ar    1  UNL1        0.0082
      6 C         141.6934  140.6472  167.8961 C.ar    1  UNL1        0.0347
      7 BR        142.6889  140.8756  168.9948 Br      1  UNL1       -0.0490
      8 C         140.3772  139.9952  168.2002 C.ar    1  UNL1        0.0082
      9 C         139.3817  139.7669  167.1017 C.ar    1  UNL1        0.0197
     10 C         139.7025  140.1904  165.6990 C.ar    1  UNL1        0.0844
     11 N         138.7071  139.9620  164.6003 N.ar    1  UNL1       -0.2119
     12 C         139.0279  140.3856  163.1976 C.ar    1  UNL1        0.2211
     13 O         138.0325  140.1572  162.0989 O.3     1  UNL1       -0.4563
     14 C         137.7314  138.7619  161.6378 C.3     1  UNL1        0.2542
     15 C         140.8821  140.4269  160.4261 C.ar    1  UNL1        0.0036
     16 C         141.9160  139.3574  160.6192 C.ar    1  UNL1        0.0005
     17 C         142.1332  138.3233  159.5546 C.ar    1  UNL1        0.0340
     18 C         141.3165  138.3586  158.2969 C.ar    1  UNL1        0.1317
     19 N         140.2827  139.4282  158.1037 N.ar    1  UNL1       -0.2295
     20 C         140.0655  140.4623  159.1684 C.ar    1  UNL1        0.0964
     21 N         141.5337  137.3245  157.2323 N.pl3   1  UNL1       -0.2932
     22 C         140.4503  137.0343  156.2364 C.3     1  UNL1        0.0922
     23 C         140.5449  137.5836  154.8438 C.3     1  UNL1        0.0232
     24 C         142.8344  136.5805  157.1637 C.3     1  UNL1        0.0922
     25 C         142.8609  135.1586  156.6867 C.3     1  UNL1        0.0232
     26 C         140.7685  142.9188  161.1525 C.3     1  UNL1        0.1162
     27 O         139.3267  143.1067  161.5212 O.3     1  UNL1       -0.3820
     28 H         139.0791  144.0360  161.3945 H       1  UNL1        0.2107
     29 C         144.6643  142.2361  161.4786 C.ar    1  UNL1        0.2271
     30 C         143.2225  142.4240  161.8473 C.ar    1  UNL1        0.0559
     31 C         142.2103  142.7308  160.7838 C.ar    1  UNL1        0.0117
     32 C         142.6398  142.8497  159.3516 C.ar    1  UNL1        0.0559
     33 C         144.0816  142.6617  158.9828 C.ar    1  UNL1        0.2271
     34 N         145.0938  142.3549  160.0464 N.ar    1  UNL1       -0.1767
     35 O         145.6766  141.9293  162.5422 O.3     1  UNL1       -0.4602
     36 C         144.9076  139.9044  163.9769 C.3     1  UNL1        0.0512
     37 C         145.2331  141.3638  163.8589 C.3     1  UNL1        0.2072
     38 O         144.5110  142.7806  157.5505 O.3     1  UNL1       -0.4602
     39 C         145.8301  142.2154  157.1137 C.3     1  UNL1        0.2072
     40 C         147.2205  142.7697  157.0169 C.3     1  UNL1        0.0512
     41 C         140.8720  144.3765  160.8143 C.3     1  UNL1        0.0491
     42 C         140.5003  145.4113  161.8346 C.3     1  UNL1        0.0750
     43 N         140.8153  145.1834  163.2833 N.3     1  UNL1       -0.2702
     44 C         139.7182  144.8281  164.2425 C.3     1  UNL1        0.0897
     45 C         142.2274  145.3106  163.7728 C.3     1  UNL1        0.0897
@<TRIPOS>BOND
     1    36    37    1
     2    37    35    1
     3    35    29    1
     4    29    30   ar
     5    30    31   ar
     6    31    26    1
     7    26    27    1
     8    26    41    1
     9    41    42    1
    10    42    43    1
    11    43    44    1
    12    43    45    1
    13    26     1    1
    14     1    15    1
    15    15    16   ar
    16    16    17   ar
    17    17    18   ar
    18    18    21    1
    19    21    22    1
    20    22    23    1
    21    21    24    1
    22    24    25    1
    23    18    19   ar
    24    19    20   ar
    25     1     2    1
    26     2     3   ar
    27     3     4   ar
    28     4     5   ar
    29     5     6   ar
    30     6     7    1
    31     6     8   ar
    32     8     9   ar
    33     9    10   ar
    34    10    11   ar
    35    11    12   ar
    36    12    13    1
    37    13    14    1
    38    31    32   ar
    39    32    33   ar
    40    33    38    1
    41    38    39    1
    42    39    40    1
    43    33    34   ar
    44    34    29   ar
    45    20    15   ar
    46    12     2   ar
    47    10     4   ar
    48    27    28    1
@<TRIPOS>MOLECULE
*****
 45 48 0 0 0
SMALL
GASTEIGER

@<TRIPOS>ATOM
      1 C         140.3258  141.3719  162.5231 C.3     1  UNL1        0.0791
      2 C         140.2925  141.8603  163.9410 C.ar    1  UNL1        0.0374
      3 C         141.4515  141.5915  164.8544 C.ar    1  UNL1        0.0023
      4 C         141.4181  142.0799  166.2723 C.ar    1  UNL1        0.0181
      5 C         142.5772  141.8111  167.1856 C.ar    1  UNL1        0.0082
      6 C         142.5438  142.2995  168.6035 C.ar    1  UNL1        0.0347
      7 BR        143.7029  142.0307  169.5169 Br      1  UNL1       -0.0490
      8 C         141.3513  143.0568  169.1079 C.ar    1  UNL1        0.0082
      9 C         140.1922  143.3256  168.1946 C.ar    1  UNL1        0.0197
     10 C         140.2256  142.8372  166.7768 C.ar    1  UNL1        0.0844
     11 N         139.0665  143.1060  165.8633 N.ar    1  UNL1       -0.2119
     12 C         139.0999  142.6176  164.4455 C.ar    1  UNL1        0.2211
     13 O         137.9408  142.8864  163.5321 O.3     1  UNL1       -0.4563
     14 C         137.7102  144.2699  163.0003 C.3     1  UNL1        0.2542
     15 C         140.5229  142.3452  161.3990 C.ar    1  UNL1        0.0036
     16 C         139.5907  142.3328  160.2239 C.ar    1  UNL1        0.0005
     17 C         139.7878  143.3061  159.0998 C.ar    1  UNL1        0.0340
     18 C         140.9172  144.2921  159.1508 C.ar    1  UNL1        0.1317
     19 N         141.8494  144.3046  160.3258 N.ar    1  UNL1       -0.2295
     20 C         141.6523  143.3311  161.4500 C.ar    1  UNL1        0.0964
     21 N         141.1143  145.2654  158.0267 N.pl3   1  UNL1       -0.2932
     22 C         142.3283  145.1647  157.1515 C.3     1  UNL1        0.0922
     23 C         142.8067  143.8220  156.6842 C.3     1  UNL1        0.0232
     24 C         140.0973  146.3396  157.7778 C.3     1  UNL1        0.0922
     25 C         139.6453  146.6346  156.3782 C.3     1  UNL1        0.0232
     26 C         140.1621  139.9101  162.2294 C.3     1  UNL1        0.1162
     27 O         138.7379  139.9759  162.6953 O.3     1  UNL1       -0.3820
     28 H         138.3310  139.0989  162.6167 H       1  UNL1        0.2107
     29 C         143.3175  139.4400  159.8688 C.ar    1  UNL1        0.2271
     30 C         141.8933  139.5059  160.3347 C.ar    1  UNL1        0.0559
     31 C         141.5864  139.8442  161.7635 C.ar    1  UNL1        0.0117
     32 C         142.7039  140.1165  162.7263 C.ar    1  UNL1        0.0559
     33 C         144.1281  140.0507  162.2604 C.ar    1  UNL1        0.2271
     34 N         144.4350  139.7124  160.8316 N.ar    1  UNL1       -0.1767
     35 O         143.6243  139.1017  158.4400 O.3     1  UNL1       -0.4602
     36 C         145.0383  140.8697  157.1653 C.3     1  UNL1        0.0512
     37 C         143.7233  140.1929  157.4155 C.3     1  UNL1        0.2072
     38 O         145.2456  140.3231  163.2233 O.3     1  UNL1       -0.4602
     39 C         145.6026  141.7362  163.5776 C.3     1  UNL1        0.2072
     40 C         145.0239  142.7532  164.5160 C.3     1  UNL1        0.0512
     41 C         139.9984  138.4482  161.9357 C.3     1  UNL1        0.0491
     42 C         139.3324  137.5520  162.9372 C.3     1  UNL1        0.0750
     43 N         139.7818  137.5619  164.3683 N.3     1  UNL1       -0.2702
     44 C         141.2221  137.3113  164.7038 C.3     1  UNL1        0.0897
     45 C         138.7909  137.8225  165.4638 C.3     1  UNL1        0.0897
@<TRIPOS>BOND
     1    36    37    1
     2    37    35    1
     3    35    29    1
     4    29    30   ar
     5    30    31   ar
     6    31    26    1
     7    26    27    1
     8    26    41    1
     9    41    42    1
    10    42    43    1
    11    43    44    1
    12    43    45    1
    13    26     1    1
    14     1    15    1
    15    15    16   ar
    16    16    17   ar
    17    17    18   ar
    18    18    21    1
    19    21    22    1
    20    22    23    1
    21    21    24    1
    22    24    25    1
    23    18    19   ar
    24    19    20   ar
    25     1     2    1
    26     2     3   ar
    27     3     4   ar
    28     4     5   ar
    29     5     6   ar
    30     6     7    1
    31     6     8   ar
    32     8     9   ar
    33     9    10   ar
    34    10    11   ar
    35    11    12   ar
    36    12    13    1
    37    13    14    1
    38    31    32   ar
    39    32    33   ar
    40    33    38    1
    41    38    39    1
    42    39    40    1
    43    33    34   ar
    44    34    29   ar
    45    20    15   ar
    46    12     2   ar
    47    10     4   ar
    48    27    28    1
@<TRIPOS>MOLECULE
*****
 45 48 0 0 0
SMALL
GASTEIGER

@<TRIPOS>ATOM
      1 C         141.2619  141.1756  158.9021 C.3     1  UNL1        0.0791
      2 C         142.0092  141.5866  160.1361 C.ar    1  UNL1        0.0374
      3 C         141.6806  140.9561  161.4568 C.ar    1  UNL1        0.0023
      4 C         142.4279  141.3671  162.6908 C.ar    1  UNL1        0.0181
      5 C         142.0993  140.7366  164.0115 C.ar    1  UNL1        0.0082
      6 C         142.8466  141.1477  165.2454 C.ar    1  UNL1        0.0347
      7 BR        142.5180  140.5172  166.5663 Br      1  UNL1       -0.0490
      8 C         143.9225  142.1893  165.1585 C.ar    1  UNL1        0.0082
      9 C         144.2511  142.8198  163.8378 C.ar    1  UNL1        0.0197
     10 C         143.5038  142.4087  162.6039 C.ar    1  UNL1        0.0844
     11 N         143.8324  143.0393  161.2831 N.ar    1  UNL1       -0.2119
     12 C         143.0851  142.6282  160.0492 C.ar    1  UNL1        0.2211
     13 O         143.4137  143.2587  158.7283 O.3     1  UNL1       -0.4563
     14 C         144.5368  142.7145  157.8962 C.3     1  UNL1        0.2542
     15 C         141.5299  139.8407  158.2727 C.ar    1  UNL1        0.0036
     16 C         140.3999  139.0473  157.6865 C.ar    1  UNL1        0.0005
     17 C         140.6680  137.7125  157.0571 C.ar    1  UNL1        0.0340
     18 C         142.0662  137.1709  157.0138 C.ar    1  UNL1        0.1317
     19 N         143.1962  137.9642  157.6000 N.ar    1  UNL1       -0.2295
     20 C         142.9281  139.2992  158.2294 C.ar    1  UNL1        0.0964
     21 N         142.3343  135.8360  156.3844 N.pl3   1  UNL1       -0.2932
     22 C         141.3640  135.2660  155.3926 C.3     1  UNL1        0.0922
     23 C         141.3380  133.7890  155.1326 C.3     1  UNL1        0.0232
     24 C         143.5726  135.0711  156.7469 C.3     1  UNL1        0.0922
     25 C         143.5729  134.1685  157.9450 C.3     1  UNL1        0.0232
     26 C         140.2465  142.0995  158.2976 C.3     1  UNL1        0.1162
     27 O         141.1372  142.2996  157.1074 O.3     1  UNL1       -0.3820
     28 H         140.7101  142.9060  156.4823 H       1  UNL1        0.2107
     29 C         137.8892  140.3441  160.9643 C.ar    1  UNL1        0.2271
     30 C         138.7799  140.5442  159.7741 C.ar    1  UNL1        0.0559
     31 C         139.3558  141.8993  159.4878 C.ar    1  UNL1        0.0117
     32 C         139.0410  143.0542  160.3916 C.ar    1  UNL1        0.0559
     33 C         138.1503  142.8541  161.5818 C.ar    1  UNL1        0.2271
     34 N         137.5744  141.4990  161.8682 N.ar    1  UNL1       -0.1767
     35 O         137.3132  138.9889  161.2506 O.3     1  UNL1       -0.4602
     36 C         139.5393  137.9311  162.0725 C.3     1  UNL1        0.0512
     37 C         138.0452  138.0378  162.1504 C.3     1  UNL1        0.2072
     38 O         137.8355  144.0091  162.4857 O.3     1  UNL1       -0.4602
     39 C         138.6777  144.2616  163.7010 C.3     1  UNL1        0.2072
     40 C         140.1127  143.9964  164.0477 C.3     1  UNL1        0.0512
     41 C         139.2311  143.0233  157.6931 C.3     1  UNL1        0.0491
     42 C         139.6287  143.9532  156.5852 C.3     1  UNL1        0.0750
     43 N         139.9645  145.3829  156.8903 N.3     1  UNL1       -0.2702
     44 C         140.8849  145.7108  158.0284 C.3     1  UNL1        0.0897
     45 C         139.3800  146.4848  156.0572 C.3     1  UNL1        0.0897
@<TRIPOS>BOND
     1    36    37    1
     2    37    35    1
     3    35    29    1
     4    29    30   ar
     5    30    31   ar
     6    31    26    1
     7    26    27    1
     8    26    41    1
     9    41    42    1
    10    42    43    1
    11    43    44    1
    12    43    45    1
    13    26     1    1
    14     1    15    1
    15    15    16   ar
    16    16    17   ar
    17    17    18   ar
    18    18    21    1
    19    21    22    1
    20    22    23    1
    21    21    24    1
    22    24    25    1
    23    18    19   ar
    24    19    20   ar
    25     1     2    1
    26     2     3   ar
    27     3     4   ar
    28     4     5   ar
    29     5     6   ar
    30     6     7    1
    31     6     8   ar
    32     8     9   ar
    33     9    10   ar
    34    10    11   ar
    35    11    12   ar
    36    12    13    1
    37    13    14    1
    38    31    32   ar
    39    32    33   ar
    40    33    38    1
    41    38    39    1
    42    39    40    1
    43    33    34   ar
    44    34    29   ar
    45    20    15   ar
    46    12     2   ar
    47    10     4   ar
    48    27    28    1
@<TRIPOS>MOLECULE
*****
 45 48 0 0 0
SMALL
GASTEIGER

@<TRIPOS>ATOM
      1 C         140.5198  141.5243  161.2909 C.3     1  UNL1        0.0791
      2 C         140.1681  141.0982  162.6855 C.ar    1  UNL1        0.0374
      3 C         141.1954  141.1777  163.7756 C.ar    1  UNL1        0.0023
      4 C         140.8438  140.7516  165.1702 C.ar    1  UNL1        0.0181
      5 C         141.8711  140.8311  166.2602 C.ar    1  UNL1        0.0082
      6 C         141.5194  140.4050  167.6547 C.ar    1  UNL1        0.0347
      7 BR        142.5467  140.4845  168.7449 Br      1  UNL1       -0.0490
      8 C         140.1404  139.8993  167.9592 C.ar    1  UNL1        0.0082
      9 C         139.1131  139.8198  166.8691 C.ar    1  UNL1        0.0197
     10 C         139.4648  140.2459  165.4746 C.ar    1  UNL1        0.0844
     11 N         138.4374  140.1664  164.3845 N.ar    1  UNL1       -0.2119
     12 C         138.7891  140.5926  162.9900 C.ar    1  UNL1        0.2211
     13 O         137.7618  140.5130  161.8998 O.3     1  UNL1       -0.4563
     14 C         137.4813  139.2016  161.2279 C.3     1  UNL1        0.2542
     15 C         140.7632  140.4921  160.2302 C.ar    1  UNL1        0.0036
     16 C         140.0333  140.5741  158.9224 C.ar    1  UNL1        0.0005
     17 C         140.2767  139.5418  157.8616 C.ar    1  UNL1        0.0340
     18 C         141.2501  138.4276  158.1087 C.ar    1  UNL1        0.1317
     19 N         141.9801  138.3457  159.4166 N.ar    1  UNL1       -0.2295
     20 C         141.7366  139.3780  160.4773 C.ar    1  UNL1        0.0964
     21 N         141.4936  137.3954  157.0480 N.pl3   1  UNL1       -0.2932
     22 C         140.3675  136.9490  156.1633 C.3     1  UNL1        0.0922
     23 C         140.5776  136.8332  154.6826 C.3     1  UNL1        0.0232
     24 C         142.8631  136.8095  156.8719 C.3     1  UNL1        0.0922
     25 C         143.0739  135.3332  157.0342 C.3     1  UNL1        0.0232
     26 C         140.6280  142.9827  160.9572 C.3     1  UNL1        0.1162
     27 O         139.1475  143.1354  161.1442 O.3     1  UNL1       -0.3820
     28 H         138.8944  144.0574  160.9810 H       1  UNL1        0.2107
     29 C         144.1780  142.7113  159.2041 C.ar    1  UNL1        0.2271
     30 C         142.6976  142.8640  159.3911 C.ar    1  UNL1        0.0559
     31 C         142.1084  142.8301  160.7701 C.ar    1  UNL1        0.0117
     32 C         142.9997  142.6436  161.9621 C.ar    1  UNL1        0.0559
     33 C         144.4801  142.4910  161.7751 C.ar    1  UNL1        0.2271
     34 N         145.0693  142.5248  160.3961 N.ar    1  UNL1       -0.1767
     35 O         144.7672  142.7452  157.8250 O.3     1  UNL1       -0.4602
     36 C         144.1924  140.3174  157.1001 C.3     1  UNL1        0.0512
     37 C         145.1555  141.4665  157.1438 C.3     1  UNL1        0.2072
     38 O         145.3714  142.3045  162.9671 O.3     1  UNL1       -0.4602
     39 C         144.7880  142.3163  164.3489 C.3     1  UNL1        0.2072
     40 C         144.4917  143.3973  165.3457 C.3     1  UNL1        0.0512
     41 C         140.7362  144.4411  160.6234 C.3     1  UNL1        0.0491
     42 C         140.2739  145.4725  161.6095 C.3     1  UNL1        0.0750
     43 N         140.4696  145.2457  163.0793 N.3     1  UNL1       -0.2702
     44 C         141.8284  145.4190  163.6906 C.3     1  UNL1        0.0897
     45 C         139.3065  144.8456  163.9379 C.3     1  UNL1        0.0897
@<TRIPOS>BOND
     1    36    37    1
     2    37    35    1
     3    35    29    1
     4    29    30   ar
     5    30    31   ar
     6    31    26    1
     7    26    27    1
     8    26    41    1
     9    41    42    1
    10    42    43    1
    11    43    44    1
    12    43    45    1
    13    26     1    1
    14     1    15    1
    15    15    16   ar
    16    16    17   ar
    17    17    18   ar
    18    18    21    1
    19    21    22    1
    20    22    23    1
    21    21    24    1
    22    24    25    1
    23    18    19   ar
    24    19    20   ar
    25     1     2    1
    26     2     3   ar
    27     3     4   ar
    28     4     5   ar
    29     5     6   ar
    30     6     7    1
    31     6     8   ar
    32     8     9   ar
    33     9    10   ar
    34    10    11   ar
    35    11    12   ar
    36    12    13    1
    37    13    14    1
    38    31    32   ar
    39    32    33   ar
    40    33    38    1
    41    38    39    1
    42    39    40    1
    43    33    34   ar
    44    34    29   ar
    45    20    15   ar
    46    12     2   ar
    47    10     4   ar
    48    27    28    1
@<TRIPOS>MOLECULE
*****
 45 48 0 0 0
SMALL
GASTEIGER

@<TRIPOS>ATOM
      1 C         141.9254  140.4331  161.2792 C.3     1  UNL1        0.0791
      2 C         141.0161  140.1148  162.4290 C.ar    1  UNL1        0.0374
      3 C         141.4859  140.3265  163.8376 C.ar    1  UNL1        0.0023
      4 C         140.5766  140.0081  164.9874 C.ar    1  UNL1        0.0181
      5 C         141.0464  140.2199  166.3961 C.ar    1  UNL1        0.0082
      6 C         140.1371  139.9015  167.5457 C.ar    1  UNL1        0.0347
      7 BR        140.6069  140.1133  168.9545 Br      1  UNL1       -0.0490
      8 C         138.7580  139.3715  167.2868 C.ar    1  UNL1        0.0082
      9 C         138.2882  139.1597  165.8781 C.ar    1  UNL1        0.0197
     10 C         139.1975  139.4781  164.7284 C.ar    1  UNL1        0.0844
     11 N         138.7277  139.2663  163.3196 N.ar    1  UNL1       -0.2119
     12 C         139.6370  139.5847  162.1700 C.ar    1  UNL1        0.2211
     13 O         139.1672  139.3730  160.7612 O.3     1  UNL1       -0.4563
     14 C         137.7562  139.7128  160.3821 C.3     1  UNL1        0.2542
     15 C         142.1081  139.4398  160.1702 C.ar    1  UNL1        0.0036
     16 C         141.8491  139.8457  158.7496 C.ar    1  UNL1        0.0005
     17 C         142.0317  138.8525  157.6405 C.ar    1  UNL1        0.0340
     18 C         142.4735  137.4532  157.9521 C.ar    1  UNL1        0.1317
     19 N         142.7325  137.0473  159.3727 N.ar    1  UNL1       -0.2295
     20 C         142.5497  138.0406  160.4818 C.ar    1  UNL1        0.0964
     21 N         142.6561  136.4599  156.8431 N.pl3   1  UNL1       -0.2932
     22 C         143.4978  135.2377  157.0619 C.3     1  UNL1        0.0922
     23 C         142.9186  133.8752  156.8208 C.3     1  UNL1        0.0232
     24 C         141.9972  136.6888  155.5152 C.3     1  UNL1        0.0922
     25 C         140.5444  136.3629  155.3327 C.3     1  UNL1        0.0232
     26 C         142.6520  141.7447  161.2385 C.3     1  UNL1        0.1162
     27 O         143.9642  141.0188  161.2706 O.3     1  UNL1       -0.3820
     28 H         144.6901  141.6620  161.2527 H       1  UNL1        0.2107
     29 C         139.5948  144.0162  162.3538 C.ar    1  UNL1        0.2271
     30 C         140.9070  143.2903  162.3859 C.ar    1  UNL1        0.0559
     31 C         141.3397  142.4707  161.2065 C.ar    1  UNL1        0.0117
     32 C         140.4602  142.3770  159.9951 C.ar    1  UNL1        0.0559
     33 C         139.1479  143.1029  159.9630 C.ar    1  UNL1        0.2271
     34 N         138.7152  143.9225  161.1424 N.ar    1  UNL1       -0.1767
     35 O         139.1621  144.8359  163.5333 O.3     1  UNL1       -0.4602
     36 C         137.8331  142.8256  164.5040 C.3     1  UNL1        0.0512
     37 C         138.1421  144.2933  164.4900 C.3     1  UNL1        0.2072
     38 O         138.2683  143.0092  158.7515 O.3     1  UNL1       -0.4602
     39 C         138.7689  142.3285  157.5122 C.3     1  UNL1        0.2072
     40 C         138.6832  140.9262  156.9866 C.3     1  UNL1        0.0512
     41 C         143.3786  143.0564  161.1979 C.3     1  UNL1        0.0491
     42 C         144.6694  143.2221  161.9436 C.3     1  UNL1        0.0750
     43 N         144.7287  142.9322  163.4141 N.3     1  UNL1       -0.2702
     44 C         145.5932  141.8178  163.9246 C.3     1  UNL1        0.0897
     45 C         143.9234  143.7567  164.3741 C.3     1  UNL1        0.0897
@<TRIPOS>BOND
     1    36    37    1
     2    37    35    1
     3    35    29    1
     4    29    30   ar
     5    30    31   ar
     6    31    26    1
     7    26    27    1
     8    26    41    1
     9    41    42    1
    10    42    43    1
    11    43    44    1
    12    43    45    1
    13    26     1    1
    14     1    15    1
    15    15    16   ar
    16    16    17   ar
    17    17    18   ar
    18    18    21    1
    19    21    22    1
    20    22    23    1
    21    21    24    1
    22    24    25    1
    23    18    19   ar
    24    19    20   ar
    25     1     2    1
    26     2     3   ar
    27     3     4   ar
    28     4     5   ar
    29     5     6   ar
    30     6     7    1
    31     6     8   ar
    32     8     9   ar
    33     9    10   ar
    34    10    11   ar
    35    11    12   ar
    36    12    13    1
    37    13    14    1
    38    31    32   ar
    39    32    33   ar
    40    33    38    1
    41    38    39    1
    42    39    40    1
    43    33    34   ar
    44    34    29   ar
    45    20    15   ar
    46    12     2   ar
    47    10     4   ar
    48    27    28    1
@<TRIPOS>MOLECULE
*****
 45 48 0 0 0
SMALL
GASTEIGER

@<TRIPOS>ATOM
      1 C         141.4822  141.2952  161.4913 C.3     1  UNL1        0.0791
      2 C         140.9409  140.7352  160.2093 C.ar    1  UNL1        0.0374
      3 C         139.7241  141.3452  159.5790 C.ar    1  UNL1        0.0023
      4 C         139.1828  140.7852  158.2971 C.ar    1  UNL1        0.0181
      5 C         137.9660  141.3953  157.6668 C.ar    1  UNL1        0.0082
      6 C         137.4247  140.8352  156.3849 C.ar    1  UNL1        0.0347
      7 BR        136.2079  141.4453  155.7546 Br      1  UNL1       -0.0490
      8 C         138.1002  139.6651  155.7333 C.ar    1  UNL1        0.0082
      9 C         139.3169  139.0551  156.3635 C.ar    1  UNL1        0.0197
     10 C         139.8582  139.6151  157.6454 C.ar    1  UNL1        0.0844
     11 N         141.0750  139.0051  158.2758 N.ar    1  UNL1       -0.2119
     12 C         141.6163  139.5651  159.5577 C.ar    1  UNL1        0.2211
     13 O         142.8332  138.9550  160.1880 O.3     1  UNL1       -0.4563
     14 C         142.6848  137.8376  161.1777 C.3     1  UNL1        0.2542
     15 C         140.8940  140.8688  162.8035 C.ar    1  UNL1        0.0036
     16 C         141.6311  141.1438  164.0806 C.ar    1  UNL1        0.0005
     17 C         141.0429  140.7174  165.3929 C.ar    1  UNL1        0.0340
     18 C         139.7173  140.0161  165.4281 C.ar    1  UNL1        0.1317
     19 N         138.9802  139.7411  164.1510 N.ar    1  UNL1       -0.2295
     20 C         139.5685  140.1675  162.8387 C.ar    1  UNL1        0.0964
     21 N         139.1290  139.5897  166.7404 N.pl3   1  UNL1       -0.2932
     22 C         137.8325  138.8361  166.7716 C.3     1  UNL1        0.0922
     23 C         137.8205  137.3542  166.5395 C.3     1  UNL1        0.0232
     24 C         139.8373  139.9169  168.0214 C.3     1  UNL1        0.0922
     25 C         139.0464  140.2186  169.2599 C.3     1  UNL1        0.0232
     26 C         142.6119  142.2816  161.4609 C.3     1  UNL1        0.1162
     27 O         143.5745  141.1905  161.8254 O.3     1  UNL1       -0.3820
     28 H         144.4707  141.5567  161.8855 H       1  UNL1        0.2107
     29 C         139.5434  144.7916  161.6457 C.ar    1  UNL1        0.2271
     30 C         140.5059  143.7005  162.0103 C.ar    1  UNL1        0.0559
     31 C         141.6493  143.3727  161.0963 C.ar    1  UNL1        0.0117
     32 C         141.8301  144.1362  159.8179 C.ar    1  UNL1        0.0559
     33 C         140.8675  145.2273  159.4534 C.ar    1  UNL1        0.2271
     34 N         139.7242  145.5550  160.3673 N.ar    1  UNL1       -0.1767
     35 O         138.4000  145.1193  162.5597 O.3     1  UNL1       -0.4602
     36 C         138.9431  144.8004  165.0803 C.3     1  UNL1        0.0512
     37 C         138.2224  144.3596  163.8408 C.3     1  UNL1        0.2072
     38 O         141.0484  145.9907  158.1748 O.3     1  UNL1       -0.4602
     39 C         140.2431  145.6257  156.9631 C.3     1  UNL1        0.2072
     40 C         139.6080  144.3566  156.4775 C.3     1  UNL1        0.0512
     41 C         143.7415  143.2680  161.4305 C.3     1  UNL1        0.0491
     42 C         144.6621  143.3906  162.6084 C.3     1  UNL1        0.0750
     43 N         144.1575  143.9676  163.8978 N.3     1  UNL1       -0.2702
     44 C         143.3095  145.2048  163.8848 C.3     1  UNL1        0.0897
     45 C         144.5009  143.3074  165.2001 C.3     1  UNL1        0.0897
@<TRIPOS>BOND
     1    36    37    1
     2    37    35    1
     3    35    29    1
     4    29    30   ar
     5    30    31   ar
     6    31    26    1
     7    26    27    1
     8    26    41    1
     9    41    42    1
    10    42    43    1
    11    43    44    1
    12    43    45    1
    13    26     1    1
    14     1    15    1
    15    15    16   ar
    16    16    17   ar
    17    17    18   ar
    18    18    21    1
    19    21    22    1
    20    22    23    1
    21    21    24    1
    22    24    25    1
    23    18    19   ar
    24    19    20   ar
    25     1     2    1
    26     2     3   ar
    27     3     4   ar
    28     4     5   ar
    29     5     6   ar
    30     6     7    1
    31     6     8   ar
    32     8     9   ar
    33     9    10   ar
    34    10    11   ar
    35    11    12   ar
    36    12    13    1
    37    13    14    1
    38    31    32   ar
    39    32    33   ar
    40    33    38    1
    41    38    39    1
    42    39    40    1
    43    33    34   ar
    44    34    29   ar
    45    20    15   ar
    46    12     2   ar
    47    10     4   ar
    48    27    28    1
