@<TRIPOS>MOLECULE
*****
 34 38 0 0 0
SMALL
GASTEIGER

@<TRIPOS>ATOM
      1 C         137.7650  138.5633  161.7451 C.3     1  UNL1        0.0759
      2 C         138.9547  139.4686  165.9896 C.3     1  UNL1        0.0464
      3 C         138.4574  140.5685  165.0992 C.3     1  UNL1        0.0234
      4 C         138.0609  140.2667  163.6844 C.3     1  UNL1        0.0725
      5 N         138.1616  138.8651  163.1599 N.3     1  UNL1       -0.2725
      6 C         138.6589  137.7651  164.0503 C.3     1  UNL1        0.0725
      7 C         139.0554  138.0669  165.4651 C.3     1  UNL1        0.0234
      8 F         144.0534  142.3790  170.0102 F       1  UNL1       -0.2041
      9 C         142.9069  141.7369  169.2867 C.ar    1  UNL1        0.1433
     10 C         142.9231  141.6428  167.7897 C.ar    1  UNL1        0.0299
     11 C         141.7767  141.0008  167.0662 C.ar    1  UNL1        0.0067
     12 C         140.6141  140.4529  167.8396 C.ar    1  UNL1        0.0540
     13 C         139.3513  139.7704  167.4044 C.ar    1  UNL1        0.1003
     14 N         138.5546  139.4427  168.6324 N.ar    1  UNL1       -0.0814
     15 O         139.3251  139.9226  169.8265 O.2     1  UNL1       -0.3536
     16 C         140.5980  140.5470  169.3365 C.ar    1  UNL1        0.1787
     17 C         141.7444  141.1890  170.0600 C.ar    1  UNL1        0.0698
     18 C         138.5697  139.1164  160.6064 C.3     1  UNL1        0.0646
     19 C         139.8680  138.4707  160.2223 C.3     1  UNL1        0.2068
     20 O         140.6513  137.6972  161.2411 O.3     1  UNL1       -0.4754
     21 C         141.8143  138.3387  161.9382 C.ar    1  UNL1        0.1385
     22 C         143.2145  138.0416  161.4895 C.ar    1  UNL1        0.0366
     23 C         144.3774  138.6831  162.1866 C.ar    1  UNL1       -0.0011
     24 C         144.1402  139.6216  163.3324 C.ar    1  UNL1       -0.0206
     25 C         142.7401  139.9187  163.7811 C.ar    1  UNL1       -0.0011
     26 C         141.5771  139.2772  163.0840 C.ar    1  UNL1        0.0366
     27 C         145.3032  140.2632  164.0295 C.3     1  UNL1        0.0437
     28 C         145.7001  141.6687  163.6877 C.3     1  UNL1        0.0769
     29 N         144.8035  142.5144  162.8327 N.3     1  UNL1       -0.2681
     30 C         143.9819  143.6036  163.4559 C.3     1  UNL1        0.1046
     31 C         143.0852  144.4494  162.6009 C.3     1  UNL1        0.1595
     32 O         143.0103  144.2058  161.1227 O.3     1  UNL1       -0.3508
     33 C         143.8320  143.1166  160.4995 C.3     1  UNL1        0.1595
     34 C         144.7286  142.2709  161.3545 C.3     1  UNL1        0.1046
@<TRIPOS>BOND
     1     8     9    1
     2     9    10   ar
     3    10    11   ar
     4    11    12   ar
     5    12    13   ar
     6    13     2    1
     7     2     3    1
     8     3     4    1
     9     4     5    1
    10     5     1    1
    11     1    18    1
    12    18    19    1
    13    19    20    1
    14    20    21    1
    15    21    22   ar
    16    22    23   ar
    17    23    24   ar
    18    24    27    1
    19    27    28    1
    20    28    29    1
    21    29    30    1
    22    30    31    1
    23    31    32    1
    24    32    33    1
    25    33    34    1
    26    24    25   ar
    27    25    26   ar
    28     5     6    1
    29     6     7    1
    30    13    14   ar
    31    14    15   ar
    32    15    16   ar
    33    16    17   ar
    34    17     9   ar
    35    16    12   ar
    36     7     2    1
    37    26    21   ar
    38    34    29    1
@<TRIPOS>MOLECULE
*****
 34 38 0 0 0
SMALL
GASTEIGER

@<TRIPOS>ATOM
      1 C         141.2719  138.4699  161.1115 C.3     1  UNL1        0.0759
      2 C         141.9539  139.5204  165.4338 C.3     1  UNL1        0.0464
      3 C         141.8714  140.6061  164.4020 C.3     1  UNL1        0.0234
      4 C         141.6441  140.2559  162.9613 C.3     1  UNL1        0.0725
      5 N         141.4992  138.8201  162.5522 N.3     1  UNL1       -0.2725
      6 C         141.5817  137.7344  163.5840 C.3     1  UNL1        0.0725
      7 C         141.8090  138.0846  165.0247 C.3     1  UNL1        0.0234
      8 F         140.3589  144.2615  170.4944 F       1  UNL1       -0.2041
      9 C         140.7750  143.1924  169.5280 C.ar    1  UNL1        0.1433
     10 C         140.2886  143.2329  168.1097 C.ar    1  UNL1        0.0299
     11 C         140.7048  142.1638  167.1433 C.ar    1  UNL1        0.0067
     12 C         141.6074  141.0543  167.5952 C.ar    1  UNL1        0.0540
     13 C         142.1812  139.8706  166.8745 C.ar    1  UNL1        0.1003
     14 N         143.0223  139.0985  167.8474 N.ar    1  UNL1       -0.0814
     15 O         142.9682  139.8050  169.1694 O.2     1  UNL1       -0.3536
     16 C         142.0938  141.0138  169.0135 C.ar    1  UNL1        0.1787
     17 C         141.6776  142.0829  169.9799 C.ar    1  UNL1        0.0698
     18 C         139.8817  138.2044  160.6145 C.3     1  UNL1        0.0646
     19 C         138.7948  137.8446  161.5835 C.3     1  UNL1        0.2068
     20 O         137.6206  138.7599  161.7673 O.3     1  UNL1       -0.4754
     21 C         137.7897  140.0594  162.4970 C.ar    1  UNL1        0.1385
     22 C         138.0765  140.0609  163.9694 C.ar    1  UNL1        0.0366
     23 C         138.2456  141.3604  164.6992 C.ar    1  UNL1       -0.0011
     24 C         138.1277  142.6584  163.9567 C.ar    1  UNL1       -0.0206
     25 C         137.8408  142.6569  162.4843 C.ar    1  UNL1       -0.0011
     26 C         137.6718  141.3574  161.7545 C.ar    1  UNL1        0.0366
     27 C         138.2967  143.9579  164.6865 C.3     1  UNL1        0.0437
     28 C         139.5946  144.7048  164.5976 C.3     1  UNL1        0.0769
     29 N         140.3292  144.7792  163.2919 N.3     1  UNL1       -0.2681
     30 C         139.7622  145.5794  162.1569 C.3     1  UNL1        0.1046
     31 C         140.4967  145.6539  160.8511 C.3     1  UNL1        0.1595
     32 O         141.7983  144.9281  160.6805 O.3     1  UNL1       -0.3508
     33 C         142.3653  144.1280  161.8155 C.3     1  UNL1        0.1595
     34 C         141.6307  144.0535  163.1211 C.3     1  UNL1        0.1046
@<TRIPOS>BOND
     1     8     9    1
     2     9    10   ar
     3    10    11   ar
     4    11    12   ar
     5    12    13   ar
     6    13     2    1
     7     2     3    1
     8     3     4    1
     9     4     5    1
    10     5     1    1
    11     1    18    1
    12    18    19    1
    13    19    20    1
    14    20    21    1
    15    21    22   ar
    16    22    23   ar
    17    23    24   ar
    18    24    27    1
    19    27    28    1
    20    28    29    1
    21    29    30    1
    22    30    31    1
    23    31    32    1
    24    32    33    1
    25    33    34    1
    26    24    25   ar
    27    25    26   ar
    28     5     6    1
    29     6     7    1
    30    13    14   ar
    31    14    15   ar
    32    15    16   ar
    33    16    17   ar
    34    17     9   ar
    35    16    12   ar
    36     7     2    1
    37    26    21   ar
    38    34    29    1
@<TRIPOS>MOLECULE
*****
 34 38 0 0 0
SMALL
GASTEIGER

@<TRIPOS>ATOM
      1 C         139.9965  137.5944  162.5399 C.3     1  UNL1        0.0759
      2 C         139.8704  139.4197  166.6512 C.3     1  UNL1        0.0464
      3 C         140.9585  139.8041  165.6930 C.3     1  UNL1        0.0234
      4 C         141.0005  139.1957  164.3226 C.3     1  UNL1        0.0725
      5 N         139.9545  138.2029  163.9103 N.3     1  UNL1       -0.2725
      6 C         138.8664  137.8184  164.8686 C.3     1  UNL1        0.0725
      7 C         138.8244  138.4269  166.2390 C.3     1  UNL1        0.0234
      8 F         143.3780  143.6975  171.1267 F       1  UNL1       -0.2041
      9 C         142.5378  142.7808  170.2878 C.ar    1  UNL1        0.1433
     10 C         142.9802  142.4167  168.9016 C.ar    1  UNL1        0.0299
     11 C         142.1399  141.5000  168.0627 C.ar    1  UNL1        0.0067
     12 C         140.8574  140.9474  168.6100 C.ar    1  UNL1        0.0540
     13 C         139.8284  140.0282  168.0216 C.ar    1  UNL1        0.1003
     14 N         138.7501  139.8242  169.0442 N.ar    1  UNL1       -0.0814
     15 O         139.1126  140.6174  170.2646 O.2     1  UNL1       -0.3536
     16 C         140.4150  141.3116  169.9963 C.ar    1  UNL1        0.1787
     17 C         141.2552  142.2283  170.8351 C.ar    1  UNL1        0.0698
     18 C         140.1970  138.4681  161.3372 C.3     1  UNL1        0.0646
     19 C         139.0328  138.8073  160.4542 C.3     1  UNL1        0.2068
     20 O         137.7804  139.3782  161.0506 O.3     1  UNL1       -0.4754
     21 C         137.8382  140.6544  161.8367 C.ar    1  UNL1        0.1385
     22 C         137.5961  140.6349  163.3170 C.ar    1  UNL1        0.0366
     23 C         137.6538  141.9111  164.1031 C.ar    1  UNL1       -0.0011
     24 C         137.9536  143.2066  163.4090 C.ar    1  UNL1       -0.0206
     25 C         138.1957  143.2260  161.9288 C.ar    1  UNL1       -0.0011
     26 C         138.1380  141.9499  161.1427 C.ar    1  UNL1        0.0366
     27 C         138.0114  144.4828  164.1952 C.3     1  UNL1        0.0437
     28 C         139.2581  144.8452  164.9463 C.3     1  UNL1        0.0769
     29 N         140.6006  144.4488  164.4072 N.3     1  UNL1       -0.2681
     30 C         141.3377  143.2891  165.0087 C.3     1  UNL1        0.1046
     31 C         142.6802  142.8925  164.4695 C.3     1  UNL1        0.1595
     32 O         143.2855  143.6557  163.3289 O.3     1  UNL1       -0.3508
     33 C         142.5484  144.8154  162.7274 C.3     1  UNL1        0.1595
     34 C         141.2059  145.2119  163.2666 C.3     1  UNL1        0.1046
@<TRIPOS>BOND
     1     8     9    1
     2     9    10   ar
     3    10    11   ar
     4    11    12   ar
     5    12    13   ar
     6    13     2    1
     7     2     3    1
     8     3     4    1
     9     4     5    1
    10     5     1    1
    11     1    18    1
    12    18    19    1
    13    19    20    1
    14    20    21    1
    15    21    22   ar
    16    22    23   ar
    17    23    24   ar
    18    24    27    1
    19    27    28    1
    20    28    29    1
    21    29    30    1
    22    30    31    1
    23    31    32    1
    24    32    33    1
    25    33    34    1
    26    24    25   ar
    27    25    26   ar
    28     5     6    1
    29     6     7    1
    30    13    14   ar
    31    14    15   ar
    32    15    16   ar
    33    16    17   ar
    34    17     9   ar
    35    16    12   ar
    36     7     2    1
    37    26    21   ar
    38    34    29    1
@<TRIPOS>MOLECULE
*****
 34 38 0 0 0
SMALL
GASTEIGER

@<TRIPOS>ATOM
      1 C         137.7747  139.0151  161.6578 C.3     1  UNL1        0.0759
      2 C         139.0949  139.7082  165.9037 C.3     1  UNL1        0.0464
      3 C         139.2149  138.3428  165.2943 C.3     1  UNL1        0.0234
      4 C         138.7749  138.1118  163.8791 C.3     1  UNL1        0.0725
      5 N         138.2148  139.2461  163.0731 N.3     1  UNL1       -0.2725
      6 C         138.0947  140.6115  163.6825 C.3     1  UNL1        0.0725
      7 C         138.5347  140.8425  165.0978 C.3     1  UNL1        0.0234
      8 F         144.1561  142.7027  169.9098 F       1  UNL1       -0.2041
      9 C         143.0257  142.0291  169.1897 C.ar    1  UNL1        0.1433
     10 C         142.9782  142.0412  167.6906 C.ar    1  UNL1        0.0299
     11 C         141.8478  141.3676  166.9706 C.ar    1  UNL1        0.0067
     12 C         140.7649  140.6819  167.7497 C.ar    1  UNL1        0.0540
     13 C         139.5349  139.9392  167.3190 C.ar    1  UNL1        0.1003
     14 N         138.8222  139.4681  168.5519 N.ar    1  UNL1       -0.0814
     15 O         139.6117  139.9196  169.7447 O.2     1  UNL1       -0.3536
     16 C         140.8124  140.6698  169.2489 C.ar    1  UNL1        0.1787
     17 C         141.9428  141.3434  169.9689 C.ar    1  UNL1        0.0698
     18 C         138.5856  139.5636  160.5213 C.3     1  UNL1        0.0646
     19 C         139.7978  138.8234  160.0391 C.3     1  UNL1        0.2068
     20 O         140.9989  138.6916  160.9279 O.3     1  UNL1       -0.4754
     21 C         141.6030  139.9113  161.5582 C.ar    1  UNL1        0.1385
     22 C         142.0091  141.0746  160.7026 C.ar    1  UNL1        0.0366
     23 C         142.6132  142.2943  161.3329 C.ar    1  UNL1       -0.0011
     24 C         142.8113  142.3507  162.8187 C.ar    1  UNL1       -0.0206
     25 C         142.4053  141.1874  163.6743 C.ar    1  UNL1       -0.0011
     26 C         141.8011  139.9677  163.0440 C.ar    1  UNL1        0.0366
     27 C         143.4154  143.5705  163.4490 C.3     1  UNL1        0.0437
     28 C         142.5301  144.6131  164.0647 C.3     1  UNL1        0.0769
     29 N         141.1331  144.8075  163.5541 N.3     1  UNL1       -0.2681
     30 C         139.9733  144.2156  164.2987 C.3     1  UNL1        0.1046
     31 C         138.5762  144.4099  163.7882 C.3     1  UNL1        0.1595
     32 O         138.3391  145.1962  162.5330 O.3     1  UNL1       -0.3508
     33 C         139.4989  145.7880  161.7883 C.3     1  UNL1        0.1595
     34 C         140.8959  145.5937  162.2989 C.3     1  UNL1        0.1046
@<TRIPOS>BOND
     1     8     9    1
     2     9    10   ar
     3    10    11   ar
     4    11    12   ar
     5    12    13   ar
     6    13     2    1
     7     2     3    1
     8     3     4    1
     9     4     5    1
    10     5     1    1
    11     1    18    1
    12    18    19    1
    13    19    20    1
    14    20    21    1
    15    21    22   ar
    16    22    23   ar
    17    23    24   ar
    18    24    27    1
    19    27    28    1
    20    28    29    1
    21    29    30    1
    22    30    31    1
    23    31    32    1
    24    32    33    1
    25    33    34    1
    26    24    25   ar
    27    25    26   ar
    28     5     6    1
    29     6     7    1
    30    13    14   ar
    31    14    15   ar
    32    15    16   ar
    33    16    17   ar
    34    17     9   ar
    35    16    12   ar
    36     7     2    1
    37    26    21   ar
    38    34    29    1
@<TRIPOS>MOLECULE
*****
 34 38 0 0 0
SMALL
GASTEIGER

@<TRIPOS>ATOM
      1 C         143.8415  140.3255  161.0175 C.3     1  UNL1        0.0759
      2 C         143.0454  139.8790  165.4240 C.3     1  UNL1        0.0464
      3 C         144.4565  139.9112  164.9163 C.3     1  UNL1        0.0234
      4 C         144.7218  140.0601  163.4474 C.3     1  UNL1        0.0725
      5 N         143.5761  140.1767  162.4863 N.3     1  UNL1       -0.2725
      6 C         142.1650  140.1444  162.9941 C.3     1  UNL1        0.0725
      7 C         141.8997  139.9956  164.4629 C.3     1  UNL1        0.0234
      8 F         139.6756  142.8162  170.9602 F       1  UNL1       -0.2041
      9 C         140.4327  142.0940  169.8854 C.ar    1  UNL1        0.1433
     10 C         140.4265  142.6201  168.4808 C.ar    1  UNL1        0.0299
     11 C         141.1837  141.8979  167.4060 C.ar    1  UNL1        0.0067
     12 C         141.9470  140.6496  167.7359 C.ar    1  UNL1        0.0540
     13 C         142.7800  139.7301  166.8928 C.ar    1  UNL1        0.1003
     14 N         143.3011  138.6357  167.7765 N.ar    1  UNL1       -0.0814
     15 O         142.7902  138.8788  169.1656 O.2     1  UNL1       -0.3536
     16 C         141.9533  140.1234  169.1405 C.ar    1  UNL1        0.1787
     17 C         141.1961  140.8456  170.2153 C.ar    1  UNL1        0.0698
     18 C         144.0260  141.6903  160.4232 C.3     1  UNL1        0.0646
     19 C         144.6347  142.7893  161.2429 C.3     1  UNL1        0.2068
     20 O         143.8187  143.9945  161.6056 O.3     1  UNL1       -0.4754
     21 C         142.5627  143.8355  162.4101 C.ar    1  UNL1        0.1385
     22 C         141.2351  143.7447  161.7178 C.ar    1  UNL1        0.0366
     23 C         139.9791  143.5857  162.5223 C.ar    1  UNL1       -0.0011
     24 C         140.0508  143.5174  164.0191 C.ar    1  UNL1       -0.0206
     25 C         141.3784  143.6082  164.7113 C.ar    1  UNL1       -0.0011
     26 C         142.6344  143.7672  163.9068 C.ar    1  UNL1        0.0366
     27 C         138.7949  143.3584  164.8236 C.3     1  UNL1        0.0437
     28 C         137.7573  142.3593  164.4048 C.3     1  UNL1        0.0769
     29 N         138.1093  140.9037  164.3190 N.3     1  UNL1       -0.2681
     30 C         138.2625  140.2469  162.9791 C.3     1  UNL1        0.1046
     31 C         138.6145  138.7912  162.8932 C.3     1  UNL1        0.1595
     32 O         138.8134  137.9925  164.1472 O.3     1  UNL1       -0.3508
     33 C         138.6602  138.6494  165.4870 C.3     1  UNL1        0.1595
     34 C         138.3082  140.1049  165.5729 C.3     1  UNL1        0.1046
@<TRIPOS>BOND
     1     8     9    1
     2     9    10   ar
     3    10    11   ar
     4    11    12   ar
     5    12    13   ar
     6    13     2    1
     7     2     3    1
     8     3     4    1
     9     4     5    1
    10     5     1    1
    11     1    18    1
    12    18    19    1
    13    19    20    1
    14    20    21    1
    15    21    22   ar
    16    22    23   ar
    17    23    24   ar
    18    24    27    1
    19    27    28    1
    20    28    29    1
    21    29    30    1
    22    30    31    1
    23    31    32    1
    24    32    33    1
    25    33    34    1
    26    24    25   ar
    27    25    26   ar
    28     5     6    1
    29     6     7    1
    30    13    14   ar
    31    14    15   ar
    32    15    16   ar
    33    16    17   ar
    34    17     9   ar
    35    16    12   ar
    36     7     2    1
    37    26    21   ar
    38    34    29    1
@<TRIPOS>MOLECULE
*****
 34 38 0 0 0
SMALL
GASTEIGER

@<TRIPOS>ATOM
      1 C         142.0367  140.6217  169.8574 C.3     1  UNL1        0.0759
      2 C         143.4988  140.6012  165.6015 C.3     1  UNL1        0.0464
      3 C         143.3466  141.9001  166.3361 C.3     1  UNL1        0.0234
      4 C         142.8593  141.9070  167.7547 C.3     1  UNL1        0.0725
      5 N         142.5240  140.6149  168.4388 N.3     1  UNL1       -0.2725
      6 C         142.6762  139.3159  167.7042 C.3     1  UNL1        0.0725
      7 C         143.1635  139.3091  166.2856 C.3     1  UNL1        0.0234
      8 F         142.7952  137.3308  159.3213 F       1  UNL1       -0.2041
      9 C         143.0422  138.1067  160.5810 C.ar    1  UNL1        0.1433
     10 C         142.2974  137.7572  161.8353 C.ar    1  UNL1        0.0299
     11 C         142.5444  138.5331  163.0950 C.ar    1  UNL1        0.0067
     12 C         143.5361  139.6584  163.1006 C.ar    1  UNL1        0.0540
     13 C         143.9861  140.5944  164.1829 C.ar    1  UNL1        0.1003
     14 N         145.0091  141.5223  163.5976 N.ar    1  UNL1       -0.0814
     15 O         145.1913  141.1598  162.1535 O.2     1  UNL1       -0.3536
     16 C         144.2809  140.0079  161.8464 C.ar    1  UNL1        0.1787
     17 C         144.0339  139.2320  160.5866 C.ar    1  UNL1        0.0698
     18 C         140.7213  139.9881  170.2016 C.3     1  UNL1        0.0646
     19 C         139.4793  140.3894  169.4624 C.3     1  UNL1        0.2068
     20 O         138.9321  139.5063  168.3805 O.3     1  UNL1       -0.4754
     21 C         139.1540  139.8599  166.9398 C.ar    1  UNL1        0.1385
     22 C         138.9034  138.8389  165.8698 C.ar    1  UNL1        0.0366
     23 C         139.1253  139.1925  164.4290 C.ar    1  UNL1       -0.0011
     24 C         139.5978  140.5671  164.0584 C.ar    1  UNL1       -0.0206
     25 C         139.8484  141.5881  165.1284 C.ar    1  UNL1       -0.0011
     26 C         139.6265  141.2344  166.5691 C.ar    1  UNL1        0.0366
     27 C         139.8198  140.9207  162.6176 C.3     1  UNL1        0.0437
     28 C         140.8617  141.9337  162.2459 C.3     1  UNL1        0.0769
     29 N         140.4492  143.3064  161.8039 N.3     1  UNL1       -0.2681
     30 C         139.6654  144.1885  162.7300 C.3     1  UNL1        0.1046
     31 C         139.2528  145.5614  162.2880 C.3     1  UNL1        0.1595
     32 O         139.6241  146.0520  160.9200 O.3     1  UNL1       -0.3508
     33 C         140.4079  145.1699  159.9940 C.3     1  UNL1        0.1595
     34 C         140.8204  143.7971  160.4360 C.3     1  UNL1        0.1046
@<TRIPOS>BOND
     1     8     9    1
     2     9    10   ar
     3    10    11   ar
     4    11    12   ar
     5    12    13   ar
     6    13     2    1
     7     2     3    1
     8     3     4    1
     9     4     5    1
    10     5     1    1
    11     1    18    1
    12    18    19    1
    13    19    20    1
    14    20    21    1
    15    21    22   ar
    16    22    23   ar
    17    23    24   ar
    18    24    27    1
    19    27    28    1
    20    28    29    1
    21    29    30    1
    22    30    31    1
    23    31    32    1
    24    32    33    1
    25    33    34    1
    26    24    25   ar
    27    25    26   ar
    28     5     6    1
    29     6     7    1
    30    13    14   ar
    31    14    15   ar
    32    15    16   ar
    33    16    17   ar
    34    17     9   ar
    35    16    12   ar
    36     7     2    1
    37    26    21   ar
    38    34    29    1
@<TRIPOS>MOLECULE
*****
 34 38 0 0 0
SMALL
GASTEIGER

@<TRIPOS>ATOM
      1 C         140.9636  138.3421  160.8787 C.3     1  UNL1        0.0759
      2 C         139.7964  139.0639  165.1644 C.3     1  UNL1        0.0464
      3 C         139.6758  140.1695  164.1578 C.3     1  UNL1        0.0234
      4 C         140.0649  139.9289  162.7292 C.3     1  UNL1        0.0725
      5 N         140.5746  138.5828  162.3072 N.3     1  UNL1       -0.2725
      6 C         140.6952  137.4772  163.3138 C.3     1  UNL1        0.0725
      7 C         140.3061  137.7178  164.7423 C.3     1  UNL1        0.0234
      8 F         141.9156  142.0955  171.2431 F       1  UNL1       -0.2041
      9 C         141.3484  141.4146  170.0328 C.ar    1  UNL1        0.1433
     10 C         142.1139  141.4176  168.7429 C.ar    1  UNL1        0.0299
     11 C         141.5467  140.7368  167.5326 C.ar    1  UNL1        0.0067
     12 C         140.2140  140.0530  167.6123 C.ar    1  UNL1        0.0540
     13 C         139.4074  139.3046  166.5929 C.ar    1  UNL1        0.1003
     14 N         138.1433  138.8390  167.2528 N.ar    1  UNL1       -0.0814
     15 O         138.1688  139.2997  168.6801 O.2     1  UNL1       -0.3536
     16 C         139.4486  140.0500  168.9022 C.ar    1  UNL1        0.1787
     17 C         140.0158  140.7308  170.1125 C.ar    1  UNL1        0.0698
     18 C         142.2688  137.6755  160.5589 C.3     1  UNL1        0.0646
     19 C         143.4214  138.4890  160.0494 C.3     1  UNL1        0.2068
     20 O         144.3890  139.1060  161.0154 O.3     1  UNL1       -0.4754
     21 C         143.9180  140.1478  161.9864 C.ar    1  UNL1        0.1385
     22 C         143.6112  141.5357  161.5070 C.ar    1  UNL1        0.0366
     23 C         143.1402  142.5775  162.4780 C.ar    1  UNL1       -0.0011
     24 C         142.9760  142.2314  163.9283 C.ar    1  UNL1       -0.0206
     25 C         143.2827  140.8435  164.4076 C.ar    1  UNL1       -0.0011
     26 C         143.7537  139.8017  163.4367 C.ar    1  UNL1        0.0366
     27 C         142.5050  143.2732  164.8992 C.3     1  UNL1        0.0437
     28 C         141.0394  143.4320  165.1766 C.3     1  UNL1        0.0769
     29 N         140.1485  144.0767  164.1565 N.3     1  UNL1       -0.2681
     30 C         140.7005  145.1205  163.2313 C.3     1  UNL1        0.1046
     31 C         139.8096  145.7653  162.2111 C.3     1  UNL1        0.1595
     32 O         138.3668  145.3662  162.1161 O.3     1  UNL1       -0.3508
     33 C         137.8149  144.3224  163.0412 C.3     1  UNL1        0.1595
     34 C         138.7057  143.6777  164.0614 C.3     1  UNL1        0.1046
@<TRIPOS>BOND
     1     8     9    1
     2     9    10   ar
     3    10    11   ar
     4    11    12   ar
     5    12    13   ar
     6    13     2    1
     7     2     3    1
     8     3     4    1
     9     4     5    1
    10     5     1    1
    11     1    18    1
    12    18    19    1
    13    19    20    1
    14    20    21    1
    15    21    22   ar
    16    22    23   ar
    17    23    24   ar
    18    24    27    1
    19    27    28    1
    20    28    29    1
    21    29    30    1
    22    30    31    1
    23    31    32    1
    24    32    33    1
    25    33    34    1
    26    24    25   ar
    27    25    26   ar
    28     5     6    1
    29     6     7    1
    30    13    14   ar
    31    14    15   ar
    32    15    16   ar
    33    16    17   ar
    34    17     9   ar
    35    16    12   ar
    36     7     2    1
    37    26    21   ar
    38    34    29    1
@<TRIPOS>MOLECULE
*****
 34 38 0 0 0
SMALL
GASTEIGER

@<TRIPOS>ATOM
      1 C         139.3928  143.0001  159.5963 C.3     1  UNL1        0.0759
      2 C         139.0478  141.0498  163.6371 C.3     1  UNL1        0.0464
      3 C         138.0372  142.0722  163.2090 C.3     1  UNL1        0.0234
      4 C         138.1522  142.7223  161.8621 C.3     1  UNL1        0.0725
      5 N         139.2778  142.3500  160.9432 N.3     1  UNL1       -0.2725
      6 C         140.2884  141.3276  161.3713 C.3     1  UNL1        0.0725
      7 C         140.1734  140.6775  162.7182 C.3     1  UNL1        0.0234
      8 F         140.7717  141.7608  170.5040 F       1  UNL1       -0.2041
      9 C         140.3433  141.4854  169.0931 C.ar    1  UNL1        0.1433
     10 C         140.6899  142.4539  168.0014 C.ar    1  UNL1        0.0299
     11 C         140.2616  142.1785  166.5905 C.ar    1  UNL1        0.0067
     12 C         139.4865  140.9346  166.2713 C.ar    1  UNL1        0.0540
     13 C         138.9328  140.3997  164.9840 C.ar    1  UNL1        0.1003
     14 N         138.2439  139.1005  165.2800 N.ar    1  UNL1       -0.0814
     15 O         138.3718  138.8325  166.7503 O.2     1  UNL1       -0.3536
     16 C         139.1398  139.9661  167.3629 C.ar    1  UNL1        0.1787
     17 C         139.5682  140.2415  168.7738 C.ar    1  UNL1        0.0698
     18 C         139.9348  144.3939  159.4801 C.3     1  UNL1        0.0646
     19 C         140.6494  145.0200  160.6409 C.3     1  UNL1        0.2068
     20 O         142.1349  144.8647  160.7794 O.3     1  UNL1       -0.4754
     21 C         142.6976  143.8671  161.7479 C.ar    1  UNL1        0.1385
     22 C         142.2191  143.8497  163.1695 C.ar    1  UNL1        0.0366
     23 C         142.7818  142.8521  164.1380 C.ar    1  UNL1       -0.0011
     24 C         143.8229  141.8719  163.6850 C.ar    1  UNL1       -0.0206
     25 C         144.3014  141.8892  162.2635 C.ar    1  UNL1       -0.0011
     26 C         143.7387  142.8868  161.2949 C.ar    1  UNL1        0.0366
     27 C         144.3856  140.8743  164.6536 C.3     1  UNL1        0.0437
     28 C         144.5410  139.4390  164.2464 C.3     1  UNL1        0.0769
     29 N         143.3531  138.6658  163.7555 N.3     1  UNL1       -0.2681
     30 C         143.1731  138.4200  162.2867 C.3     1  UNL1        0.1046
     31 C         141.9852  137.6468  161.7956 C.3     1  UNL1        0.1595
     32 O         140.9773  137.1195  162.7734 O.3     1  UNL1       -0.3508
     33 C         141.1573  137.3653  164.2421 C.3     1  UNL1        0.1595
     34 C         142.3452  138.1384  164.7331 C.3     1  UNL1        0.1046
@<TRIPOS>BOND
     1     8     9    1
     2     9    10   ar
     3    10    11   ar
     4    11    12   ar
     5    12    13   ar
     6    13     2    1
     7     2     3    1
     8     3     4    1
     9     4     5    1
    10     5     1    1
    11     1    18    1
    12    18    19    1
    13    19    20    1
    14    20    21    1
    15    21    22   ar
    16    22    23   ar
    17    23    24   ar
    18    24    27    1
    19    27    28    1
    20    28    29    1
    21    29    30    1
    22    30    31    1
    23    31    32    1
    24    32    33    1
    25    33    34    1
    26    24    25   ar
    27    25    26   ar
    28     5     6    1
    29     6     7    1
    30    13    14   ar
    31    14    15   ar
    32    15    16   ar
    33    16    17   ar
    34    17     9   ar
    35    16    12   ar
    36     7     2    1
    37    26    21   ar
    38    34    29    1
@<TRIPOS>MOLECULE
*****
 34 38 0 0 0
SMALL
GASTEIGER

@<TRIPOS>ATOM
      1 C         144.3528  139.5207  161.7575 C.3     1  UNL1        0.0759
      2 C         143.0155  140.9829  165.7978 C.3     1  UNL1        0.0464
      3 C         143.3425  141.9674  164.7144 C.3     1  UNL1        0.0234
      4 C         143.7883  141.4800  163.3676 C.3     1  UNL1        0.0725
      5 N         143.9070  140.0081  163.1042 N.3     1  UNL1       -0.2725
      6 C         143.5799  139.0236  164.1877 C.3     1  UNL1        0.0725
      7 C         143.1342  139.5110  165.5344 C.3     1  UNL1        0.0234
      8 F         137.9027  140.3619  170.7076 F       1  UNL1       -0.2041
      9 C         139.0444  140.5893  169.7616 C.ar    1  UNL1        0.1433
     10 C         139.0941  139.8535  168.4555 C.ar    1  UNL1        0.0299
     11 C         140.2358  140.0808  167.5095 C.ar    1  UNL1        0.0067
     12 C         141.3278  141.0440  167.8697 C.ar    1  UNL1        0.0540
     13 C         142.5697  141.4703  167.1445 C.ar    1  UNL1        0.1003
     14 N         143.2876  142.4697  168.0025 N.ar    1  UNL1       -0.0814
     15 O         142.4893  142.6609  169.2579 O.2     1  UNL1       -0.3536
     16 C         141.2781  141.7798  169.1759 C.ar    1  UNL1        0.1787
     17 C         140.1364  141.5524  170.1218 C.ar    1  UNL1        0.0698
     18 C         144.0408  138.1182  161.3265 C.3     1  UNL1        0.0646
     19 C         142.7200  137.8062  160.6875 C.3     1  UNL1        0.2068
     20 O         141.5647  137.3589  161.5332 O.3     1  UNL1       -0.4754
     21 C         140.7227  138.3727  162.2496 C.ar    1  UNL1        0.1385
     22 C         140.0264  138.0024  163.5256 C.ar    1  UNL1        0.0366
     23 C         139.1844  139.0162  164.2419 C.ar    1  UNL1       -0.0011
     24 C         139.0387  140.4002  163.6822 C.ar    1  UNL1       -0.0206
     25 C         139.7350  140.7705  162.4063 C.ar    1  UNL1       -0.0011
     26 C         140.5770  139.7567  161.6899 C.ar    1  UNL1        0.0366
     27 C         138.1966  141.4140  164.3986 C.3     1  UNL1        0.0437
     28 C         138.8440  142.5961  165.0571 C.3     1  UNL1        0.0769
     29 N         139.4265  143.6956  164.2193 N.3     1  UNL1       -0.2681
     30 C         140.8476  144.1268  164.4304 C.3     1  UNL1        0.1046
     31 C         141.4301  145.2263  163.5926 C.3     1  UNL1        0.1595
     32 O         140.5915  145.8946  162.5438 O.3     1  UNL1       -0.3508
     33 C         139.1704  145.4634  162.3327 C.3     1  UNL1        0.1595
     34 C         138.5879  144.3639  163.1705 C.3     1  UNL1        0.1046
@<TRIPOS>BOND
     1     8     9    1
     2     9    10   ar
     3    10    11   ar
     4    11    12   ar
     5    12    13   ar
     6    13     2    1
     7     2     3    1
     8     3     4    1
     9     4     5    1
    10     5     1    1
    11     1    18    1
    12    18    19    1
    13    19    20    1
    14    20    21    1
    15    21    22   ar
    16    22    23   ar
    17    23    24   ar
    18    24    27    1
    19    27    28    1
    20    28    29    1
    21    29    30    1
    22    30    31    1
    23    31    32    1
    24    32    33    1
    25    33    34    1
    26    24    25   ar
    27    25    26   ar
    28     5     6    1
    29     6     7    1
    30    13    14   ar
    31    14    15   ar
    32    15    16   ar
    33    16    17   ar
    34    17     9   ar
    35    16    12   ar
    36     7     2    1
    37    26    21   ar
    38    34    29    1
