@<TRIPOS>MOLECULE
*****
 38 44 0 0 0
SMALL
GASTEIGER

@<TRIPOS>ATOM
      1 C         138.4907  141.8394  164.4362 C.3     1  UNL1        0.0955
      2 C         138.0477  141.8561  163.0032 C.3     1  UNL1        0.0287
      3 C         138.0469  143.1435  162.2333 C.3     1  UNL1        0.0193
      4 C         138.4890  144.4142  162.8965 C.3     1  UNL1        0.0700
      5 C         138.9320  144.3975  164.3295 C.3     1  UNL1        0.0193
      6 C         138.9328  143.1102  165.0994 C.3     1  UNL1        0.0287
      7 C         138.5067  143.7331  163.3590 C.3     1  UNL1        0.1562
      8 O         138.5074  142.5691  164.0551 O.3     1  UNL1       -0.3571
      9 N         138.4882  145.7016  162.1266 N.3     1  UNL1       -0.2939
     10 H         138.2826  146.4442  162.7949 H       1  UNL1        0.1235
     11 C         139.7136  146.1250  161.3723 C.3     1  UNL1        0.0957
     12 C         140.8698  145.1802  161.2287 C.ar    1  UNL1       -0.0032
     13 C         141.1377  144.5179  159.9097 C.ar    1  UNL1        0.0004
     14 C         142.2938  143.5731  159.7661 C.ar    1  UNL1        0.0398
     15 C         143.1821  143.2905  160.9413 C.ar    1  UNL1        0.1724
     16 C         142.9141  143.9528  162.2602 C.ar    1  UNL1        0.1721
     17 C         141.7580  144.8976  162.4039 C.ar    1  UNL1        0.0371
     18 O         143.8023  143.6703  163.4355 O.3     1  UNL1       -0.4684
     19 C         144.9584  142.7255  163.2918 C.3     1  UNL1        0.2526
     20 C         145.2264  142.0632  161.9730 C.3     1  UNL1        0.2526
     21 O         144.3382  142.3457  160.7976 O.3     1  UNL1       -0.4684
     22 C         138.4915  140.5521  165.2061 C.3     1  UNL1        0.0604
     23 O         138.8308  140.9662  170.3047 O.2     1  UNL1       -0.2670
     24 C         140.0467  140.3416  169.6872 C.ar    1  UNL1        0.2611
     25 C         141.1932  139.9145  170.5550 C.ar    1  UNL1        0.0623
     26 C         142.4092  139.2899  169.9375 C.ar    1  UNL1        0.0254
     27 C         142.4787  139.0924  168.4523 C.ar    1  UNL1        0.0972
     28 N         143.5522  138.5038  167.5738 N.ar    1  UNL1       -0.2400
     29 C         143.4787  138.3708  166.0816 C.ar    1  UNL1        0.1282
     30 C         142.2608  138.8452  165.3454 C.ar    1  UNL1        0.1588
     31 F         142.1873  138.7122  163.8532 F       1  UNL1       -0.2027
     32 C         141.1165  139.4525  166.1016 C.ar    1  UNL1        0.0500
     33 C         141.3322  139.5194  167.5845 C.ar    1  UNL1        0.0806
     34 N         140.1162  140.1440  168.2019 N.ar    1  UNL1       -0.2915
     35 C         139.1491  140.4631  167.1006 C.3     1  UNL1        0.1402
     36 C         139.7673  140.0357  165.8025 C.3     1  UNL1        0.1335
     37 O         140.1188  139.7162  164.3797 O.3     1  UNL1       -0.3806
     38 H         139.3900  139.9844  163.7986 H       1  UNL1        0.2108
@<TRIPOS>BOND
     1    23    24    2
     2    24    25   ar
     3    25    26   ar
     4    26    27   ar
     5    27    28   ar
     6    28    29   ar
     7    29    30   ar
     8    30    31    1
     9    30    32   ar
    10    32    33   ar
    11    33    34   ar
    12    34    35    1
    13    35    36    1
    14    36    37    1
    15    36    22    1
    16    22     1    1
    17     1     2    1
    18     2     3    1
    19     3     4    1
    20     4     9    1
    21     9    11    1
    22    11    12    1
    23    12    13   ar
    24    13    14   ar
    25    14    15   ar
    26    15    16   ar
    27    16    17   ar
    28    16    18    1
    29    18    19    1
    30    19    20    1
    31    20    21    1
    32     4     5    1
    33     5     6    1
    34     4     7    1
    35     7     8    1
    36    34    24   ar
    37     6     1    1
    38    33    27   ar
    39     8     1    1
    40    36    32    1
    41    17    12   ar
    42    21    15    1
    43    37    38    1
    44     9    10    1
@<TRIPOS>MOLECULE
*****
 38 44 0 0 0
SMALL
GASTEIGER

@<TRIPOS>ATOM
      1 C         138.3113  141.6650  164.6638 C.3     1  UNL1        0.0955
      2 C         139.2907  142.5647  165.3576 C.3     1  UNL1        0.0287
      3 C         140.1765  142.0180  166.4377 C.3     1  UNL1        0.0193
      4 C         140.0829  140.5716  166.8238 C.3     1  UNL1        0.0700
      5 C         139.1036  139.6719  166.1300 C.3     1  UNL1        0.0193
      6 C         138.2177  140.2185  165.0499 C.3     1  UNL1        0.0287
      7 C         139.5767  140.8255  166.2261 C.3     1  UNL1        0.1562
      8 O         138.7758  141.3199  165.2495 O.3     1  UNL1       -0.3571
      9 N         140.9687  140.0248  167.9039 N.3     1  UNL1       -0.2939
     10 H         140.4735  139.2360  168.3197 H       1  UNL1        0.1235
     11 C         142.3488  139.5419  167.5690 C.3     1  UNL1        0.0957
     12 C         142.8812  139.6998  166.1755 C.ar    1  UNL1       -0.0032
     13 C         143.6895  140.9107  165.8144 C.ar    1  UNL1        0.0004
     14 C         144.2220  141.0687  164.4210 C.ar    1  UNL1        0.0398
     15 C         143.9460  140.0160  163.3887 C.ar    1  UNL1        0.1724
     16 C         143.1376  138.8052  163.7499 C.ar    1  UNL1        0.1721
     17 C         142.6052  138.6471  165.1433 C.ar    1  UNL1        0.0371
     18 O         142.8616  137.7524  162.7177 O.3     1  UNL1       -0.4684
     19 C         143.3940  137.9104  161.3243 C.3     1  UNL1        0.2526
     20 C         144.2024  139.1212  160.9631 C.3     1  UNL1        0.2526
     21 O         144.4784  140.1740  161.9953 O.3     1  UNL1       -0.4684
     22 C         137.4255  142.2117  163.5837 C.3     1  UNL1        0.0604
     23 O         140.3135  146.1475  162.0182 O.2     1  UNL1       -0.2670
     24 C         140.0658  145.1382  160.9366 C.ar    1  UNL1        0.2611
     25 C         140.6458  145.3467  159.5691 C.ar    1  UNL1        0.0623
     26 C         140.3981  144.3374  158.4874 C.ar    1  UNL1        0.0254
     27 C         139.5705  143.1196  158.7733 C.ar    1  UNL1        0.0972
     28 N         139.1648  141.9619  157.8983 N.ar    1  UNL1       -0.2400
     29 C         138.3216  140.7990  158.3304 C.ar    1  UNL1        0.1282
     30 C         137.8097  140.7260  159.7385 C.ar    1  UNL1        0.1588
     31 F         136.9666  139.5631  160.1706 F       1  UNL1       -0.2027
     32 C         138.1410  141.8159  160.7144 C.ar    1  UNL1        0.0500
     33 C         138.9905  142.9110  160.1408 C.ar    1  UNL1        0.0806
     34 N         139.2382  143.9203  161.2224 N.ar    1  UNL1       -0.2915
     35 C         138.5418  143.4490  162.4645 C.3     1  UNL1        0.1402
     36 C         137.8637  142.1483  162.1506 C.3     1  UNL1        0.1335
     37 O         137.0940  140.8610  162.1362 O.3     1  UNL1       -0.3806
     38 H         136.7087  140.7048  163.0126 H       1  UNL1        0.2108
@<TRIPOS>BOND
     1    23    24    2
     2    24    25   ar
     3    25    26   ar
     4    26    27   ar
     5    27    28   ar
     6    28    29   ar
     7    29    30   ar
     8    30    31    1
     9    30    32   ar
    10    32    33   ar
    11    33    34   ar
    12    34    35    1
    13    35    36    1
    14    36    37    1
    15    36    22    1
    16    22     1    1
    17     1     2    1
    18     2     3    1
    19     3     4    1
    20     4     9    1
    21     9    11    1
    22    11    12    1
    23    12    13   ar
    24    13    14   ar
    25    14    15   ar
    26    15    16   ar
    27    16    17   ar
    28    16    18    1
    29    18    19    1
    30    19    20    1
    31    20    21    1
    32     4     5    1
    33     5     6    1
    34     4     7    1
    35     7     8    1
    36    34    24   ar
    37     6     1    1
    38    33    27   ar
    39     8     1    1
    40    36    32    1
    41    17    12   ar
    42    21    15    1
    43    37    38    1
    44     9    10    1
@<TRIPOS>MOLECULE
*****
 38 44 0 0 0
SMALL
GASTEIGER

@<TRIPOS>ATOM
      1 C         142.0468  143.2305  165.0483 C.3     1  UNL1        0.0955
      2 C         142.7137  142.0666  165.7198 C.3     1  UNL1        0.0287
      3 C         141.9107  141.1355  166.5789 C.3     1  UNL1        0.0193
      4 C         140.4408  141.3683  166.7668 C.3     1  UNL1        0.0700
      5 C         139.7740  142.5322  166.0954 C.3     1  UNL1        0.0193
      6 C         140.5769  143.4633  165.2362 C.3     1  UNL1        0.0287
      7 C         140.8393  141.9056  166.2866 C.3     1  UNL1        0.1562
      8 O         141.5654  142.7475  165.5097 O.3     1  UNL1       -0.3571
      9 N         139.6377  140.4372  167.6259 N.3     1  UNL1       -0.2939
     10 H         138.9938  141.0159  168.1652 H       1  UNL1        0.1235
     11 C         138.8184  139.3518  166.9931 C.3     1  UNL1        0.0957
     12 C         139.0784  138.9474  165.5722 C.ar    1  UNL1       -0.0032
     13 C         140.0993  137.8914  165.2679 C.ar    1  UNL1        0.0004
     14 C         140.3594  137.4870  163.8471 C.ar    1  UNL1        0.0398
     15 C         139.5987  138.1386  162.7305 C.ar    1  UNL1        0.1724
     16 C         138.5778  139.1946  163.0348 C.ar    1  UNL1        0.1721
     17 C         138.3176  139.5990  164.4557 C.ar    1  UNL1        0.0371
     18 O         137.8170  139.8462  161.9184 O.3     1  UNL1       -0.4684
     19 C         138.0771  139.4418  160.4975 C.3     1  UNL1        0.2526
     20 C         139.0979  138.3858  160.1932 C.3     1  UNL1        0.2526
     21 O         139.8588  137.7341  161.3097 O.3     1  UNL1       -0.4684
     22 C         142.8499  144.1616  164.1892 C.3     1  UNL1        0.0604
     23 O         139.3193  146.3461  161.1816 O.2     1  UNL1       -0.2670
     24 C         140.3234  145.5396  160.4127 C.ar    1  UNL1        0.2611
     25 C         140.2219  145.4421  158.9193 C.ar    1  UNL1        0.0623
     26 C         141.2260  144.6356  158.1504 C.ar    1  UNL1        0.0254
     27 C         142.3317  143.9267  158.8748 C.ar    1  UNL1        0.0972
     28 N         143.4592  143.0623  158.3726 N.ar    1  UNL1       -0.2400
     29 C         144.5043  142.4118  159.2296 C.ar    1  UNL1        0.1282
     30 C         144.4780  142.6003  160.7175 C.ar    1  UNL1        0.1588
     31 F         145.5231  141.9498  161.5745 F       1  UNL1       -0.2027
     32 C         143.4065  143.4393  161.3484 C.ar    1  UNL1        0.0500
     33 C         142.4333  144.0242  160.3682 C.ar    1  UNL1        0.0806
     34 N         141.4291  144.8307  161.1371 N.ar    1  UNL1       -0.2915
     35 C         141.7817  144.7442  162.5925 C.3     1  UNL1        0.1402
     36 C         143.0038  143.8843  162.7231 C.3     1  UNL1        0.1335
     37 O         144.1937  143.0823  163.1601 O.3     1  UNL1       -0.3806
     38 H         144.2796  143.1309  164.1251 H       1  UNL1        0.2108
@<TRIPOS>BOND
     1    23    24    2
     2    24    25   ar
     3    25    26   ar
     4    26    27   ar
     5    27    28   ar
     6    28    29   ar
     7    29    30   ar
     8    30    31    1
     9    30    32   ar
    10    32    33   ar
    11    33    34   ar
    12    34    35    1
    13    35    36    1
    14    36    37    1
    15    36    22    1
    16    22     1    1
    17     1     2    1
    18     2     3    1
    19     3     4    1
    20     4     9    1
    21     9    11    1
    22    11    12    1
    23    12    13   ar
    24    13    14   ar
    25    14    15   ar
    26    15    16   ar
    27    16    17   ar
    28    16    18    1
    29    18    19    1
    30    19    20    1
    31    20    21    1
    32     4     5    1
    33     5     6    1
    34     4     7    1
    35     7     8    1
    36    34    24   ar
    37     6     1    1
    38    33    27   ar
    39     8     1    1
    40    36    32    1
    41    17    12   ar
    42    21    15    1
    43    37    38    1
    44     9    10    1
@<TRIPOS>MOLECULE
*****
 38 44 0 0 0
SMALL
GASTEIGER

@<TRIPOS>ATOM
      1 C         140.2036  142.9279  164.9901 C.3     1  UNL1        0.0955
      2 C         138.8750  142.4557  164.4782 C.3     1  UNL1        0.0287
      3 C         138.3008  141.1589  164.9667 C.3     1  UNL1        0.0193
      4 C         139.0552  140.3343  165.9672 C.3     1  UNL1        0.0700
      5 C         140.3837  140.8064  166.4790 C.3     1  UNL1        0.0193
      6 C         140.9580  142.1032  165.9905 C.3     1  UNL1        0.0287
      7 C         139.4103  141.0380  165.7289 C.3     1  UNL1        0.1562
      8 O         139.9294  142.2105  165.2871 O.3     1  UNL1       -0.3571
      9 N         138.4810  139.0375  166.4558 N.3     1  UNL1       -0.2939
     10 H         137.4757  139.1792  166.5546 H       1  UNL1        0.1235
     11 C         138.6646  137.7854  165.6506 C.3     1  UNL1        0.0957
     12 C         139.3675  137.8414  164.3266 C.ar    1  UNL1       -0.0032
     13 C         138.5713  137.8936  163.0564 C.ar    1  UNL1        0.0004
     14 C         139.2740  137.9497  161.7324 C.ar    1  UNL1        0.0398
     15 C         140.7730  137.9535  161.6785 C.ar    1  UNL1        0.1724
     16 C         141.5693  137.9013  162.9487 C.ar    1  UNL1        0.1721
     17 C         140.8665  137.8453  164.2727 C.ar    1  UNL1        0.0371
     18 O         143.0683  137.9051  162.8949 O.3     1  UNL1       -0.4684
     19 C         143.7710  137.9612  161.5709 C.3     1  UNL1        0.2526
     20 C         142.9749  138.0134  160.3008 C.3     1  UNL1        0.2526
     21 O         141.4758  138.0095  160.3545 O.3     1  UNL1       -0.4684
     22 C         140.7778  144.2246  164.5015 C.3     1  UNL1        0.0604
     23 O         144.4227  141.2914  162.4055 O.2     1  UNL1       -0.2670
     24 C         143.7754  142.2148  161.4163 C.ar    1  UNL1        0.2611
     25 C         144.2175  142.2076  159.9830 C.ar    1  UNL1        0.0623
     26 C         143.5702  143.1309  158.9938 C.ar    1  UNL1        0.0254
     27 C         142.4808  144.0615  159.4380 C.ar    1  UNL1        0.0972
     28 N         141.6675  145.0784  158.6799 N.ar    1  UNL1       -0.2400
     29 C         140.5965  145.9485  159.2678 C.ar    1  UNL1        0.1282
     30 C         140.2616  145.8438  160.7262 C.ar    1  UNL1        0.1588
     31 F         139.1906  146.7139  161.3141 F       1  UNL1       -0.2027
     32 C         140.9978  144.8689  161.5966 C.ar    1  UNL1        0.0500
     33 C         142.0388  144.0687  160.8713 C.ar    1  UNL1        0.0806
     34 N         142.6860  143.1453  161.8605 N.ar    1  UNL1       -0.2915
     35 C         142.0451  143.3749  163.1971 C.3     1  UNL1        0.1402
     36 C         141.0017  144.4401  163.0340 C.3     1  UNL1        0.1335
     37 O         139.9115  145.4603  163.1777 O.3     1  UNL1       -0.3806
     38 H         139.6091  145.4828  164.0991 H       1  UNL1        0.2108
@<TRIPOS>BOND
     1    23    24    2
     2    24    25   ar
     3    25    26   ar
     4    26    27   ar
     5    27    28   ar
     6    28    29   ar
     7    29    30   ar
     8    30    31    1
     9    30    32   ar
    10    32    33   ar
    11    33    34   ar
    12    34    35    1
    13    35    36    1
    14    36    37    1
    15    36    22    1
    16    22     1    1
    17     1     2    1
    18     2     3    1
    19     3     4    1
    20     4     9    1
    21     9    11    1
    22    11    12    1
    23    12    13   ar
    24    13    14   ar
    25    14    15   ar
    26    15    16   ar
    27    16    17   ar
    28    16    18    1
    29    18    19    1
    30    19    20    1
    31    20    21    1
    32     4     5    1
    33     5     6    1
    34     4     7    1
    35     7     8    1
    36    34    24   ar
    37     6     1    1
    38    33    27   ar
    39     8     1    1
    40    36    32    1
    41    17    12   ar
    42    21    15    1
    43    37    38    1
    44     9    10    1
@<TRIPOS>MOLECULE
*****
 38 44 0 0 0
SMALL
GASTEIGER

@<TRIPOS>ATOM
      1 C         138.7296  139.0290  164.1538 C.3     1  UNL1        0.0955
      2 C         138.9003  137.9787  163.0965 C.3     1  UNL1        0.0287
      3 C         138.4006  138.2278  161.7043 C.3     1  UNL1        0.0193
      4 C         137.7302  139.5272  161.3693 C.3     1  UNL1        0.0700
      5 C         137.5596  140.5775  162.4266 C.3     1  UNL1        0.0193
      6 C         138.0593  140.3284  163.8188 C.3     1  UNL1        0.0287
      7 C         137.9877  139.4364  162.1462 C.3     1  UNL1        0.1562
      8 O         138.4395  139.2111  163.4050 O.3     1  UNL1       -0.3571
      9 N         137.2305  139.7764  159.9771 N.3     1  UNL1       -0.2939
     10 H         136.4162  140.3848  160.0610 H       1  UNL1        0.1235
     11 C         138.1347  140.4014  158.9565 C.3     1  UNL1        0.0957
     12 C         139.2945  141.2443  159.3978 C.ar    1  UNL1       -0.0032
     13 C         139.1444  142.7334  159.4970 C.ar    1  UNL1        0.0004
     14 C         140.3041  143.5763  159.9383 C.ar    1  UNL1        0.0398
     15 C         141.6138  142.9301  160.2803 C.ar    1  UNL1        0.1724
     16 C         141.7638  141.4409  160.1810 C.ar    1  UNL1        0.1721
     17 C         140.6042  140.5980  159.7398 C.ar    1  UNL1        0.0371
     18 O         143.0735  140.7946  160.5230 O.3     1  UNL1       -0.4684
     19 C         144.2331  141.6375  160.9643 C.3     1  UNL1        0.2526
     20 C         144.0832  143.1266  161.0636 C.3     1  UNL1        0.2526
     21 O         142.7734  143.7730  160.7216 O.3     1  UNL1       -0.4684
     22 C         139.2293  138.7799  165.5460 C.3     1  UNL1        0.0604
     23 O         138.1018  140.0941  170.3714 O.2     1  UNL1       -0.2670
     24 C         139.3460  140.7583  169.8606 C.ar    1  UNL1        0.2611
     25 C         140.1135  141.6950  170.7457 C.ar    1  UNL1        0.0623
     26 C         141.3577  142.3592  170.2350 C.ar    1  UNL1        0.0254
     27 C         141.8344  142.0866  168.8391 C.ar    1  UNL1        0.0972
     28 N         143.0261  142.6015  168.0741 N.ar    1  UNL1       -0.2400
     29 C         143.3788  142.2337  166.6633 C.ar    1  UNL1        0.1282
     30 C         142.5116  141.2785  165.8982 C.ar    1  UNL1        0.1588
     31 F         142.8644  140.9107  164.4874 F       1  UNL1       -0.2027
     32 C         141.2918  140.6909  166.5438 C.ar    1  UNL1        0.0500
     33 C         141.0670  141.1498  167.9541 C.ar    1  UNL1        0.0806
     34 N         139.8228  140.4856  168.4648 N.ar    1  UNL1       -0.2915
     35 C         139.2787  139.6163  167.3702 C.3     1  UNL1        0.1402
     36 C         140.1866  139.7432  166.1829 C.3     1  UNL1        0.1335
     37 O         140.8944  139.6687  164.8625 O.3     1  UNL1       -0.3806
     38 H         140.4147  139.0669  164.2720 H       1  UNL1        0.2108
@<TRIPOS>BOND
     1    23    24    2
     2    24    25   ar
     3    25    26   ar
     4    26    27   ar
     5    27    28   ar
     6    28    29   ar
     7    29    30   ar
     8    30    31    1
     9    30    32   ar
    10    32    33   ar
    11    33    34   ar
    12    34    35    1
    13    35    36    1
    14    36    37    1
    15    36    22    1
    16    22     1    1
    17     1     2    1
    18     2     3    1
    19     3     4    1
    20     4     9    1
    21     9    11    1
    22    11    12    1
    23    12    13   ar
    24    13    14   ar
    25    14    15   ar
    26    15    16   ar
    27    16    17   ar
    28    16    18    1
    29    18    19    1
    30    19    20    1
    31    20    21    1
    32     4     5    1
    33     5     6    1
    34     4     7    1
    35     7     8    1
    36    34    24   ar
    37     6     1    1
    38    33    27   ar
    39     8     1    1
    40    36    32    1
    41    17    12   ar
    42    21    15    1
    43    37    38    1
    44     9    10    1
@<TRIPOS>MOLECULE
*****
 38 44 0 0 0
SMALL
GASTEIGER

@<TRIPOS>ATOM
      1 C         141.4257  143.7487  164.8780 C.3     1  UNL1        0.0955
      2 C         142.3155  142.6950  165.4681 C.3     1  UNL1        0.0287
      3 C         141.7310  141.6187  166.3340 C.3     1  UNL1        0.0193
      4 C         140.2568  141.5960  166.6100 C.3     1  UNL1        0.0700
      5 C         139.3671  142.6497  166.0199 C.3     1  UNL1        0.0193
      6 C         139.9515  143.7261  165.1539 C.3     1  UNL1        0.0287
      7 C         140.5311  142.2058  166.1294 C.3     1  UNL1        0.1562
      8 O         141.0596  143.1790  165.3464 O.3     1  UNL1       -0.3571
      9 N         139.6723  140.5197  167.4760 N.3     1  UNL1       -0.2939
     10 H         139.0389  140.9795  168.1300 H       1  UNL1        0.1235
     11 C         138.9069  139.3897  166.8538 C.3     1  UNL1        0.0957
     12 C         139.1872  138.9843  165.4370 C.ar    1  UNL1       -0.0032
     13 C         140.2225  137.9383  165.1472 C.ar    1  UNL1        0.0004
     14 C         140.5029  137.5329  163.7305 C.ar    1  UNL1        0.0398
     15 C         139.7480  138.1734  162.6036 C.ar    1  UNL1        0.1724
     16 C         138.7127  139.2194  162.8935 C.ar    1  UNL1        0.1721
     17 C         138.4323  139.6248  164.3102 C.ar    1  UNL1        0.0371
     18 O         137.9577  139.8600  161.7668 O.3     1  UNL1       -0.4684
     19 C         138.2381  139.4546  160.3501 C.3     1  UNL1        0.2526
     20 C         139.2733  138.4087  160.0601 C.3     1  UNL1        0.2526
     21 O         140.0283  137.7680  161.1869 O.3     1  UNL1       -0.4684
     22 C         142.0102  144.8251  164.0120 C.3     1  UNL1        0.0604
     23 O         145.3501  141.8473  161.5099 O.2     1  UNL1       -0.2670
     24 C         144.3607  142.5098  160.5976 C.ar    1  UNL1        0.2611
     25 C         144.4225  142.2643  159.1191 C.ar    1  UNL1        0.0623
     26 C         143.4331  142.9268  158.2069 C.ar    1  UNL1        0.0254
     27 C         142.3818  143.8346  158.7730 C.ar    1  UNL1        0.0972
     28 N         141.2797  144.6194  158.1098 N.ar    1  UNL1       -0.2400
     29 C         140.2902  145.4971  158.8172 C.ar    1  UNL1        0.1282
     30 C         140.3519  145.6464  160.3085 C.ar    1  UNL1        0.1588
     31 F         139.3623  146.5241  161.0158 F       1  UNL1       -0.2027
     32 C         141.4030  144.9180  161.0923 C.ar    1  UNL1        0.0500
     33 C         142.3200  144.0800  160.2515 C.ar    1  UNL1        0.0806
     34 N         143.3094  143.4176  161.1638 N.ar    1  UNL1       -0.2915
     35 C         143.0039  143.8462  162.5684 C.3     1  UNL1        0.1402
     36 C         141.8257  144.7735  162.5243 C.3     1  UNL1        0.1335
     37 O         140.6861  145.7116  162.7911 O.3     1  UNL1       -0.3806
     38 H         140.6265  145.8853  163.7436 H       1  UNL1        0.2108
@<TRIPOS>BOND
     1    23    24    2
     2    24    25   ar
     3    25    26   ar
     4    26    27   ar
     5    27    28   ar
     6    28    29   ar
     7    29    30   ar
     8    30    31    1
     9    30    32   ar
    10    32    33   ar
    11    33    34   ar
    12    34    35    1
    13    35    36    1
    14    36    37    1
    15    36    22    1
    16    22     1    1
    17     1     2    1
    18     2     3    1
    19     3     4    1
    20     4     9    1
    21     9    11    1
    22    11    12    1
    23    12    13   ar
    24    13    14   ar
    25    14    15   ar
    26    15    16   ar
    27    16    17   ar
    28    16    18    1
    29    18    19    1
    30    19    20    1
    31    20    21    1
    32     4     5    1
    33     5     6    1
    34     4     7    1
    35     7     8    1
    36    34    24   ar
    37     6     1    1
    38    33    27   ar
    39     8     1    1
    40    36    32    1
    41    17    12   ar
    42    21    15    1
    43    37    38    1
    44     9    10    1
@<TRIPOS>MOLECULE
*****
 38 44 0 0 0
SMALL
GASTEIGER

@<TRIPOS>ATOM
      1 C         138.5202  138.3487  163.2574 C.3     1  UNL1        0.0955
      2 C         138.8267  137.2990  164.2842 C.3     1  UNL1        0.0287
      3 C         138.8600  137.6606  165.7396 C.3     1  UNL1        0.0193
      4 C         138.5868  139.0718  166.1683 C.3     1  UNL1        0.0700
      5 C         138.2802  140.1215  165.1415 C.3     1  UNL1        0.0193
      6 C         138.2469  139.7600  163.6861 C.3     1  UNL1        0.0287
      7 C         138.5573  138.9215  165.3592 C.3     1  UNL1        0.1562
      8 O         138.5272  138.5946  164.0432 O.3     1  UNL1       -0.3571
      9 N         138.6201  139.4334  167.6237 N.3     1  UNL1       -0.2939
     10 H         138.3722  138.5907  168.1422 H       1  UNL1        0.1235
     11 C         139.8828  139.9629  168.2361 C.3     1  UNL1        0.0957
     12 C         140.9931  140.4570  167.3567 C.ar    1  UNL1       -0.0032
     13 C         141.1484  141.9265  167.0991 C.ar    1  UNL1        0.0004
     14 C         142.2586  142.4206  166.2198 C.ar    1  UNL1        0.0398
     15 C         143.2136  141.4451  165.5980 C.ar    1  UNL1        0.1724
     16 C         143.0583  139.9756  165.8557 C.ar    1  UNL1        0.1721
     17 C         141.9480  139.4815  166.7350 C.ar    1  UNL1        0.0371
     18 O         144.0132  139.0001  165.2340 O.3     1  UNL1       -0.4684
     19 C         145.1234  139.4942  164.3546 C.3     1  UNL1        0.2526
     20 C         145.2788  140.9636  164.0970 C.3     1  UNL1        0.2526
     21 O         144.3238  141.9392  164.7187 O.3     1  UNL1       -0.4684
     22 C         138.4869  137.9872  161.8020 C.3     1  UNL1        0.0604
     23 O         137.0941  140.6318  157.6369 O.2     1  UNL1       -0.2670
     24 C         138.5756  140.4126  157.7212 C.ar    1  UNL1        0.2611
     25 C         139.4756  140.9502  156.6484 C.ar    1  UNL1        0.0623
     26 C         140.9571  140.7309  156.7327 C.ar    1  UNL1        0.0254
     27 C         141.5386  139.9740  157.8898 C.ar    1  UNL1        0.0972
     28 N         142.9606  139.6094  158.2291 N.ar    1  UNL1       -0.2400
     29 C         143.3952  138.8374  159.4396 C.ar    1  UNL1        0.1282
     30 C         142.3756  138.3616  160.4316 C.ar    1  UNL1        0.1588
     31 F         142.8102  137.5897  161.6420 F       1  UNL1       -0.2027
     32 C         140.9215  138.6578  160.2131 C.ar    1  UNL1        0.0500
     33 C         140.6386  139.4364  158.9626 C.ar    1  UNL1        0.0806
     34 N         139.1571  139.6557  158.8783 N.ar    1  UNL1       -0.2915
     35 C         138.5244  139.0126  160.0767 C.3     1  UNL1        0.1402
     36 C         139.6148  138.3959  160.9017 C.3     1  UNL1        0.1335
     37 O         140.4695  137.6937  161.9149 O.3     1  UNL1       -0.3806
     38 H         139.9075  137.3368  162.6203 H       1  UNL1        0.2108
@<TRIPOS>BOND
     1    23    24    2
     2    24    25   ar
     3    25    26   ar
     4    26    27   ar
     5    27    28   ar
     6    28    29   ar
     7    29    30   ar
     8    30    31    1
     9    30    32   ar
    10    32    33   ar
    11    33    34   ar
    12    34    35    1
    13    35    36    1
    14    36    37    1
    15    36    22    1
    16    22     1    1
    17     1     2    1
    18     2     3    1
    19     3     4    1
    20     4     9    1
    21     9    11    1
    22    11    12    1
    23    12    13   ar
    24    13    14   ar
    25    14    15   ar
    26    15    16   ar
    27    16    17   ar
    28    16    18    1
    29    18    19    1
    30    19    20    1
    31    20    21    1
    32     4     5    1
    33     5     6    1
    34     4     7    1
    35     7     8    1
    36    34    24   ar
    37     6     1    1
    38    33    27   ar
    39     8     1    1
    40    36    32    1
    41    17    12   ar
    42    21    15    1
    43    37    38    1
    44     9    10    1
@<TRIPOS>MOLECULE
*****
 38 44 0 0 0
SMALL
GASTEIGER

@<TRIPOS>ATOM
      1 C         137.8746  140.6449  162.0807 C.3     1  UNL1        0.0955
      2 C         137.6885  140.4979  163.5619 C.3     1  UNL1        0.0287
      3 C         137.6241  141.7165  164.4343 C.3     1  UNL1        0.0193
      4 C         137.7458  143.0820  163.8255 C.3     1  UNL1        0.0700
      5 C         137.9320  143.2289  162.3444 C.3     1  UNL1        0.0193
      6 C         137.9964  142.0104  161.4719 C.3     1  UNL1        0.0287
      7 C         137.7871  142.4437  163.3069 C.3     1  UNL1        0.1562
      8 O         137.8453  141.3419  162.5181 O.3     1  UNL1       -0.3571
      9 N         137.6814  144.3005  164.6978 N.3     1  UNL1       -0.2939
     10 H         136.9858  144.1099  165.4191 H       1  UNL1        0.1235
     11 C         138.9141  144.7845  165.4023 C.3     1  UNL1        0.0957
     12 C         140.2308  144.1078  165.1602 C.ar    1  UNL1       -0.0032
     13 C         140.7041  143.0327  166.0929 C.ar    1  UNL1        0.0004
     14 C         142.0207  142.3560  165.8509 C.ar    1  UNL1        0.0398
     15 C         142.8641  142.7544  164.6761 C.ar    1  UNL1        0.1724
     16 C         142.3907  143.8296  163.7434 C.ar    1  UNL1        0.1721
     17 C         141.0741  144.5063  163.9854 C.ar    1  UNL1        0.0371
     18 O         143.2340  144.2281  162.5687 O.3     1  UNL1       -0.4684
     19 C         144.5506  143.5514  162.3267 C.3     1  UNL1        0.2526
     20 C         145.0240  142.4763  163.2593 C.3     1  UNL1        0.2526
     21 O         144.1807  142.0777  164.4341 O.3     1  UNL1       -0.4684
     22 C         137.9390  139.4263  161.2083 C.3     1  UNL1        0.0604
     23 O         138.0894  139.7285  156.0928 O.2     1  UNL1       -0.2670
     24 C         139.3773  139.2407  156.6872 C.ar    1  UNL1        0.2611
     25 C         140.5341  138.9013  155.7948 C.ar    1  UNL1        0.0623
     26 C         141.8220  138.4135  156.3892 C.ar    1  UNL1        0.0254
     27 C         141.9531  138.2650  157.8760 C.ar    1  UNL1        0.0972
     28 N         143.1033  137.8066  158.7347 N.ar    1  UNL1       -0.2400
     29 C         143.0861  137.7089  160.2314 C.ar    1  UNL1        0.1282
     30 C         141.8499  138.0849  160.9934 C.ar    1  UNL1        0.1588
     31 F         141.8327  137.9872  162.4901 F       1  UNL1       -0.2027
     32 C         140.6310  138.5585  160.2586 C.ar    1  UNL1        0.0500
     33 C         140.7963  138.6044  158.7685 C.ar    1  UNL1        0.0806
     34 N         139.5084  139.0923  158.1741 N.ar    1  UNL1       -0.2915
     35 C         138.5471  139.3478  159.2969 C.3     1  UNL1        0.1402
     36 C         139.2409  139.0180  160.5852 C.3     1  UNL1        0.1335
     37 O         139.6626  138.7735  162.0038 O.3     1  UNL1       -0.3806
     38 H         138.9283  138.9868  162.6007 H       1  UNL1        0.2108
@<TRIPOS>BOND
     1    23    24    2
     2    24    25   ar
     3    25    26   ar
     4    26    27   ar
     5    27    28   ar
     6    28    29   ar
     7    29    30   ar
     8    30    31    1
     9    30    32   ar
    10    32    33   ar
    11    33    34   ar
    12    34    35    1
    13    35    36    1
    14    36    37    1
    15    36    22    1
    16    22     1    1
    17     1     2    1
    18     2     3    1
    19     3     4    1
    20     4     9    1
    21     9    11    1
    22    11    12    1
    23    12    13   ar
    24    13    14   ar
    25    14    15   ar
    26    15    16   ar
    27    16    17   ar
    28    16    18    1
    29    18    19    1
    30    19    20    1
    31    20    21    1
    32     4     5    1
    33     5     6    1
    34     4     7    1
    35     7     8    1
    36    34    24   ar
    37     6     1    1
    38    33    27   ar
    39     8     1    1
    40    36    32    1
    41    17    12   ar
    42    21    15    1
    43    37    38    1
    44     9    10    1
@<TRIPOS>MOLECULE
*****
 38 44 0 0 0
SMALL
GASTEIGER

@<TRIPOS>ATOM
      1 C         137.8465  140.8585  161.6541 C.3     1  UNL1        0.0955
      2 C         137.5588  140.6696  163.1142 C.3     1  UNL1        0.0287
      3 C         137.5240  141.8561  164.0313 C.3     1  UNL1        0.0193
      4 C         137.7770  143.2313  163.4885 C.3     1  UNL1        0.0700
      5 C         138.0647  143.4201  162.0285 C.3     1  UNL1        0.0193
      6 C         138.0995  142.2337  161.1113 C.3     1  UNL1        0.0287
      7 C         137.8065  142.6116  162.9470 C.3     1  UNL1        0.1562
      8 O         137.8380  141.5389  162.1177 O.3     1  UNL1       -0.3571
      9 N         137.7422  144.4178  164.4057 N.3     1  UNL1       -0.2939
     10 H         137.0044  144.2413  165.0875 H       1  UNL1        0.1235
     11 C         138.9668  144.8015  165.1822 C.3     1  UNL1        0.0957
     12 C         140.3263  144.4214  164.6748 C.ar    1  UNL1       -0.0032
     13 C         141.0259  145.2960  163.6770 C.ar    1  UNL1        0.0004
     14 C         142.3854  144.9160  163.1696 C.ar    1  UNL1        0.0398
     15 C         143.0452  143.6614  163.6600 C.ar    1  UNL1        0.1724
     16 C         142.3456  142.7868  164.6578 C.ar    1  UNL1        0.1721
     17 C         140.9862  143.1668  165.1652 C.ar    1  UNL1        0.0371
     18 O         143.0054  141.5321  165.1482 O.3     1  UNL1       -0.4684
     19 C         144.3649  141.1521  164.6407 C.3     1  UNL1        0.2526
     20 C         145.0645  142.0267  163.6430 C.3     1  UNL1        0.2526
     21 O         144.4047  143.2814  163.1525 O.3     1  UNL1       -0.4684
     22 C         137.8813  139.6720  160.7369 C.3     1  UNL1        0.0604
     23 O         141.6851  138.6741  164.0259 O.2     1  UNL1       -0.2670
     24 C         142.0871  138.4850  162.5932 C.ar    1  UNL1        0.2611
     25 C         143.4817  138.0467  162.2571 C.ar    1  UNL1        0.0623
     26 C         143.8837  137.8577  160.8244 C.ar    1  UNL1        0.0254
     27 C         142.8911  138.1069  159.7278 C.ar    1  UNL1        0.0972
     28 N         143.0125  137.9998  158.2298 N.ar    1  UNL1       -0.2400
     29 C         141.9169  138.2855  157.2459 C.ar    1  UNL1        0.1282
     30 C         140.5656  138.7178  157.7328 C.ar    1  UNL1        0.1588
     31 F         139.4700  139.0035  156.7490 F       1  UNL1       -0.2027
     32 C         140.3099  138.8643  159.2036 C.ar    1  UNL1        0.0500
     33 C         141.4965  138.5452  160.0639 C.ar    1  UNL1        0.0806
     34 N         141.0945  138.7342  161.4966 N.ar    1  UNL1       -0.2915
     35 C         139.6595  139.1702  161.5217 C.3     1  UNL1        0.1402
     36 C         139.1745  139.2506  160.1046 C.3     1  UNL1        0.1335
     37 O         138.4193  139.4190  158.8196 O.3     1  UNL1       -0.3806
     38 H         137.5120  139.7029  159.0126 H       1  UNL1        0.2108
@<TRIPOS>BOND
     1    23    24    2
     2    24    25   ar
     3    25    26   ar
     4    26    27   ar
     5    27    28   ar
     6    28    29   ar
     7    29    30   ar
     8    30    31    1
     9    30    32   ar
    10    32    33   ar
    11    33    34   ar
    12    34    35    1
    13    35    36    1
    14    36    37    1
    15    36    22    1
    16    22     1    1
    17     1     2    1
    18     2     3    1
    19     3     4    1
    20     4     9    1
    21     9    11    1
    22    11    12    1
    23    12    13   ar
    24    13    14   ar
    25    14    15   ar
    26    15    16   ar
    27    16    17   ar
    28    16    18    1
    29    18    19    1
    30    19    20    1
    31    20    21    1
    32     4     5    1
    33     5     6    1
    34     4     7    1
    35     7     8    1
    36    34    24   ar
    37     6     1    1
    38    33    27   ar
    39     8     1    1
    40    36    32    1
    41    17    12   ar
    42    21    15    1
    43    37    38    1
    44     9    10    1
