@<TRIPOS>MOLECULE
*****
 39 43 0 0 0
SMALL
GASTEIGER

@<TRIPOS>ATOM
      1 N         139.7431  139.1262  162.3848 N.pl3   1  UNL1       -0.2598
      2 C         138.6670  138.1769  162.8217 C.2     1  UNL1        0.1681
      3 N         138.2700  138.1068  164.2664 N.2     1  UNL1       -0.2278
      4 C         138.9492  138.9858  165.2744 C.ar    1  UNL1        0.0806
      5 C         138.5522  138.9156  166.7193 C.ar    1  UNL1        0.0146
      6 C         139.2314  139.7946  167.7272 C.ar    1  UNL1       -0.0203
      7 C         138.8345  139.7244  169.1720 C.3     1  UNL1        0.0311
      8 C         140.3076  140.7439  167.2903 C.ar    1  UNL1       -0.0011
      9 C         140.7046  140.8140  165.8455 C.ar    1  UNL1       -0.0009
     10 C         140.0254  139.9350  164.8376 C.ar    1  UNL1        0.0225
     11 C         140.4223  140.0052  163.3928 C.3     1  UNL1        0.1793
     12 C         140.9868  141.6229  168.2983 C.ar    1  UNL1        0.0357
     13 C         140.2938  142.8506  168.8108 C.ar    1  UNL1        0.0031
     14 C         140.9730  143.7296  169.8188 C.ar    1  UNL1        0.0025
     15 C         142.3452  143.3809  170.3142 C.ar    1  UNL1        0.0328
     16 C         143.0382  142.1533  169.8017 C.ar    1  UNL1        0.1735
     17 F         144.4104  141.8048  170.2972 F       1  UNL1       -0.2010
     18 C         142.3590  141.2743  168.7938 C.ar    1  UNL1        0.1609
     19 O         143.0520  140.0467  168.2813 O.3     1  UNL1       -0.5034
     20 H         143.9092  139.8290  168.5907 H       1  UNL1        0.2923
     21 C         139.0863  141.1141  157.6291 C.3     1  UNL1        0.0311
     22 C         139.8117  140.1903  158.5621 C.ar    1  UNL1       -0.0198
     23 C         140.9340  139.3368  158.0503 C.ar    1  UNL1        0.0072
     24 C         141.6594  138.4131  158.9834 C.ar    1  UNL1        0.0586
     25 CL        142.7817  137.5596  158.4716 Cl      1  UNL1       -0.0822
     26 C         141.2624  138.3429  160.4282 C.ar    1  UNL1        0.0263
     27 C         140.1401  139.1964  160.9400 C.ar    1  UNL1        0.0540
     28 C         139.4147  140.1201  160.0069 C.ar    1  UNL1        0.0107
     29 C         141.4985  140.9544  162.9559 C.2     1  UNL1        0.2485
     30 O         141.1379  142.3336  162.4891 O.2     1  UNL1       -0.2727
     31 N         142.9353  140.5244  162.9858 N.am    1  UNL1       -0.2748
     32 C         143.2958  139.1452  163.4526 C.3     1  UNL1        0.1150
     33 C         144.0114  141.4736  162.5489 C.3     1  UNL1        0.1091
     34 C         144.0272  142.8804  163.0691 C.3     1  UNL1        0.0741
     35 C         144.2001  143.2887  164.5021 C.3     1  UNL1        0.0189
     36 C         144.1526  144.7866  164.5663 C.3     1  UNL1        0.0185
     37 C         143.9503  145.3041  163.1730 C.3     1  UNL1        0.0686
     38 N         143.8728  144.1260  162.2477 N.3     1  UNL1       -0.2972
     39 H         144.6205  144.1794  161.5560 H       1  UNL1        0.1233
@<TRIPOS>BOND
     1    21    22    1
     2    22    23   ar
     3    23    24   ar
     4    24    25    1
     5    24    26   ar
     6    26    27   ar
     7    27     1    1
     8     1     2    1
     9     2     3    2
    10     3     4    1
    11     4     5   ar
    12     5     6   ar
    13     6     7    1
    14     6     8   ar
    15     8    12    1
    16    12    13   ar
    17    13    14   ar
    18    14    15   ar
    19    15    16   ar
    20    16    17    1
    21    16    18   ar
    22    18    19    1
    23     8     9   ar
    24     9    10   ar
    25    10    11    1
    26    11    29    1
    27    29    30    2
    28    29    31   am
    29    31    32    1
    30    31    33    1
    31    34    33    1
    32    34    35    1
    33    35    36    1
    34    36    37    1
    35    37    38    1
    36    27    28   ar
    37    28    22   ar
    38    11     1    1
    39    38    34    1
    40    10     4   ar
    41    18    12   ar
    42    19    20    1
    43    38    39    1
@<TRIPOS>MOLECULE
*****
 39 43 0 0 0
SMALL
GASTEIGER

@<TRIPOS>ATOM
      1 N         139.6046  139.1338  162.6004 N.pl3   1  UNL1       -0.2598
      2 C         138.5418  138.1907  163.0810 C.2     1  UNL1        0.1681
      3 N         138.1858  138.1412  164.5372 N.2     1  UNL1       -0.2278
      4 C         138.8926  139.0348  165.5129 C.ar    1  UNL1        0.0806
      5 C         138.5366  138.9853  166.9692 C.ar    1  UNL1        0.0146
      6 C         139.2434  139.8789  167.9449 C.ar    1  UNL1       -0.0203
      7 C         138.8874  139.8294  169.4012 C.3     1  UNL1        0.0311
      8 C         140.3062  140.8220  167.4642 C.ar    1  UNL1       -0.0011
      9 C         140.6622  140.8715  166.0080 C.ar    1  UNL1       -0.0009
     10 C         139.9554  139.9779  165.0323 C.ar    1  UNL1        0.0225
     11 C         140.3114  140.0274  163.5760 C.3     1  UNL1        0.1793
     12 C         141.0130  141.7155  168.4399 C.ar    1  UNL1        0.0357
     13 C         140.3293  142.9437  168.9635 C.ar    1  UNL1        0.0031
     14 C         141.0361  143.8373  169.9392 C.ar    1  UNL1        0.0025
     15 C         142.4267  143.5027  170.3913 C.ar    1  UNL1        0.0328
     16 C         143.1104  142.2745  169.8677 C.ar    1  UNL1        0.1735
     17 F         144.5009  141.9400  170.3198 F       1  UNL1       -0.2010
     18 C         142.4036  141.3810  168.8920 C.ar    1  UNL1        0.1609
     19 O         143.0873  140.1528  168.3685 O.3     1  UNL1       -0.5034
     20 H         143.9559  139.9438  168.6509 H       1  UNL1        0.2923
     21 C         142.7246  137.7534  158.6812 C.3     1  UNL1        0.0311
     22 C         141.5207  138.4931  159.1845 C.ar    1  UNL1       -0.0198
     23 C         140.6727  139.2824  158.2314 C.ar    1  UNL1        0.0072
     24 C         139.4688  140.0221  158.7347 C.ar    1  UNL1        0.0586
     25 CL        138.6209  140.8113  157.7818 Cl      1  UNL1       -0.0822
     26 C         139.1127  139.9725  160.1911 C.ar    1  UNL1        0.0263
     27 C         139.9606  139.1833  161.1440 C.ar    1  UNL1        0.0540
     28 C         141.1646  138.4436  160.6407 C.ar    1  UNL1        0.0107
     29 C         141.3743  140.9705  163.0954 C.2     1  UNL1        0.2485
     30 O         140.9971  142.3331  162.5944 O.2     1  UNL1       -0.2727
     31 N         142.8142  140.5509  163.1157 N.am    1  UNL1       -0.2748
     32 C         143.1913  139.1882  163.6167 C.3     1  UNL1        0.1150
     33 C         143.8771  141.4939  162.6351 C.3     1  UNL1        0.1091
     34 C         143.9180  142.9026  163.1487 C.3     1  UNL1        0.0741
     35 C         144.1997  143.3178  164.5623 C.3     1  UNL1        0.0189
     36 C         144.1402  144.8153  164.6263 C.3     1  UNL1        0.0185
     37 C         143.8216  145.3256  163.2522 C.3     1  UNL1        0.0686
     38 N         143.6843  144.1435  162.3391 N.3     1  UNL1       -0.2972
     39 H         144.3738  144.2029  161.5898 H       1  UNL1        0.1233
@<TRIPOS>BOND
     1    21    22    1
     2    22    23   ar
     3    23    24   ar
     4    24    25    1
     5    24    26   ar
     6    26    27   ar
     7    27     1    1
     8     1     2    1
     9     2     3    2
    10     3     4    1
    11     4     5   ar
    12     5     6   ar
    13     6     7    1
    14     6     8   ar
    15     8    12    1
    16    12    13   ar
    17    13    14   ar
    18    14    15   ar
    19    15    16   ar
    20    16    17    1
    21    16    18   ar
    22    18    19    1
    23     8     9   ar
    24     9    10   ar
    25    10    11    1
    26    11    29    1
    27    29    30    2
    28    29    31   am
    29    31    32    1
    30    31    33    1
    31    34    33    1
    32    34    35    1
    33    35    36    1
    34    36    37    1
    35    37    38    1
    36    27    28   ar
    37    28    22   ar
    38    11     1    1
    39    38    34    1
    40    10     4   ar
    41    18    12   ar
    42    19    20    1
    43    38    39    1
@<TRIPOS>MOLECULE
*****
 39 43 0 0 0
SMALL
GASTEIGER

@<TRIPOS>ATOM
      1 N         139.5501  139.4654  162.5051 N.pl3   1  UNL1       -0.2598
      2 C         138.5395  138.4593  162.9703 C.2     1  UNL1        0.1681
      3 N         138.2291  138.3288  164.4320 N.2     1  UNL1       -0.2278
      4 C         138.9293  139.2045  165.4285 C.ar    1  UNL1        0.0806
      5 C         138.6189  139.0740  166.8902 C.ar    1  UNL1        0.0146
      6 C         139.3191  139.9496  167.8867 C.ar    1  UNL1       -0.0203
      7 C         139.0087  139.8192  169.3484 C.3     1  UNL1        0.0311
      8 C         140.3297  140.9558  167.4214 C.ar    1  UNL1       -0.0011
      9 C         140.6401  141.0862  165.9597 C.ar    1  UNL1       -0.0009
     10 C         139.9399  140.2106  164.9632 C.ar    1  UNL1        0.0225
     11 C         140.2503  140.3410  163.5016 C.3     1  UNL1        0.1793
     12 C         141.0299  141.8314  168.4179 C.ar    1  UNL1        0.0357
     13 C         140.3310  143.0327  168.9824 C.ar    1  UNL1        0.0031
     14 C         141.0312  143.9084  169.9789 C.ar    1  UNL1        0.0025
     15 C         142.4303  143.5827  170.4109 C.ar    1  UNL1        0.0328
     16 C         143.1291  142.3815  169.8464 C.ar    1  UNL1        0.1735
     17 F         144.5281  142.0560  170.2784 F       1  UNL1       -0.2010
     18 C         142.4289  141.5059  168.8499 C.ar    1  UNL1        0.1609
     19 O         143.1278  140.3047  168.2855 O.3     1  UNL1       -0.5034
     20 H         144.0017  140.1013  168.5553 H       1  UNL1        0.2923
     21 C         138.6622  141.6986  157.8980 C.3     1  UNL1        0.0311
     22 C         139.4166  140.7125  158.7398 C.ar    1  UNL1       -0.0198
     23 C         140.4813  139.8569  158.1198 C.ar    1  UNL1        0.0072
     24 C         141.2357  138.8708  158.9616 C.ar    1  UNL1        0.0586
     25 CL        142.3004  138.0152  158.3417 Cl      1  UNL1       -0.0822
     26 C         140.9252  138.7403  160.4234 C.ar    1  UNL1        0.0263
     27 C         139.8605  139.5959  161.0433 C.ar    1  UNL1        0.0540
     28 C         139.1062  140.5820  160.2015 C.ar    1  UNL1        0.0107
     29 C         141.2609  141.3472  163.0363 C.2     1  UNL1        0.2485
     30 O         142.7086  140.9667  162.9400 O.2     1  UNL1       -0.2727
     31 N         140.8237  142.7338  162.6673 N.am    1  UNL1       -0.2748
     32 C         139.3759  143.1143  162.7635 C.3     1  UNL1        0.1150
     33 C         141.8342  143.7399  162.2020 C.3     1  UNL1        0.1091
     34 C         141.8974  144.1248  160.7536 C.3     1  UNL1        0.0741
     35 C         142.3144  143.2332  159.6217 C.3     1  UNL1        0.0189
     36 C         142.2294  144.0263  158.3513 C.3     1  UNL1        0.0185
     37 C         141.7598  145.4081  158.6981 C.3     1  UNL1        0.0686
     38 N         141.5547  145.4690  160.1828 N.3     1  UNL1       -0.2972
     39 H         140.5815  145.6946  160.3887 H       1  UNL1        0.1233
@<TRIPOS>BOND
     1    21    22    1
     2    22    23   ar
     3    23    24   ar
     4    24    25    1
     5    24    26   ar
     6    26    27   ar
     7    27     1    1
     8     1     2    1
     9     2     3    2
    10     3     4    1
    11     4     5   ar
    12     5     6   ar
    13     6     7    1
    14     6     8   ar
    15     8    12    1
    16    12    13   ar
    17    13    14   ar
    18    14    15   ar
    19    15    16   ar
    20    16    17    1
    21    16    18   ar
    22    18    19    1
    23     8     9   ar
    24     9    10   ar
    25    10    11    1
    26    11    29    1
    27    29    30    2
    28    29    31   am
    29    31    32    1
    30    31    33    1
    31    34    33    1
    32    34    35    1
    33    35    36    1
    34    36    37    1
    35    37    38    1
    36    27    28   ar
    37    28    22   ar
    38    11     1    1
    39    38    34    1
    40    10     4   ar
    41    18    12   ar
    42    19    20    1
    43    38    39    1
@<TRIPOS>MOLECULE
*****
 39 43 0 0 0
SMALL
GASTEIGER

@<TRIPOS>ATOM
      1 N         140.4506  144.0109  161.5545 N.pl3   1  UNL1       -0.2598
      2 C         141.3467  145.0675  160.9796 C.2     1  UNL1        0.1681
      3 N         141.4251  145.2572  159.4937 N.2     1  UNL1       -0.2278
      4 C         140.6073  144.3904  158.5828 C.ar    1  UNL1        0.0806
      5 C         140.6856  144.5802  157.0968 C.ar    1  UNL1        0.0146
      6 C         139.8679  143.7133  156.1859 C.ar    1  UNL1       -0.0203
      7 C         139.9462  143.9030  154.7001 C.3     1  UNL1        0.0311
      8 C         138.9717  142.6567  156.7609 C.ar    1  UNL1       -0.0011
      9 C         138.8934  142.4670  158.2468 C.ar    1  UNL1       -0.0009
     10 C         139.7112  143.3338  159.1577 C.ar    1  UNL1        0.0225
     11 C         139.6329  143.1441  160.6436 C.3     1  UNL1        0.1793
     12 C         138.1539  141.7898  155.8500 C.ar    1  UNL1        0.0357
     13 C         138.7147  140.4932  155.3454 C.ar    1  UNL1        0.0031
     14 C         137.8969  139.6264  154.4345 C.ar    1  UNL1        0.0025
     15 C         136.5183  140.0561  154.0281 C.ar    1  UNL1        0.0328
     16 C         135.9577  141.3527  154.5327 C.ar    1  UNL1        0.1735
     17 F         134.5792  141.7824  154.1263 F       1  UNL1       -0.2010
     18 C         136.7755  142.2195  155.4436 C.ar    1  UNL1        0.1609
     19 O         136.2148  143.5161  155.9481 O.3     1  UNL1       -0.5034
     20 H         135.3537  143.7845  155.6943 H       1  UNL1        0.2923
     21 C         142.1244  141.6833  165.8882 C.3     1  UNL1        0.0311
     22 C         141.2092  142.6573  165.2072 C.ar    1  UNL1       -0.0198
     23 C         140.2156  143.4416  166.0122 C.ar    1  UNL1        0.0072
     24 C         139.3004  144.4156  165.3312 C.ar    1  UNL1        0.0586
     25 CL        138.3069  145.1998  166.1361 Cl      1  UNL1       -0.0822
     26 C         139.3788  144.6053  163.8453 C.ar    1  UNL1        0.0263
     27 C         140.3723  143.8211  163.0404 C.ar    1  UNL1        0.0540
     28 C         141.2875  142.8471  163.7214 C.ar    1  UNL1        0.0107
     29 C         138.7367  142.0874  161.2186 C.2     1  UNL1        0.2485
     30 O         137.3478  142.4414  161.6609 O.2     1  UNL1       -0.2727
     31 N         139.2295  140.6769  161.3512 N.am    1  UNL1       -0.2748
     32 C         140.6185  140.3230  160.9087 C.3     1  UNL1        0.1150
     33 C         138.3335  139.6203  161.9261 C.3     1  UNL1        0.1091
     34 C         138.4084  139.2868  163.3867 C.3     1  UNL1        0.0741
     35 C         138.1584  140.2352  164.5216 C.3     1  UNL1        0.0189
     36 C         138.3419  139.4809  165.8051 C.3     1  UNL1        0.0185
     37 C         138.7054  138.0663  165.4634 C.3     1  UNL1        0.0686
     38 N         138.7465  137.9464  163.9687 N.3     1  UNL1       -0.2972
     39 H         138.0662  137.2526  163.6583 H       1  UNL1        0.1233
@<TRIPOS>BOND
     1    21    22    1
     2    22    23   ar
     3    23    24   ar
     4    24    25    1
     5    24    26   ar
     6    26    27   ar
     7    27     1    1
     8     1     2    1
     9     2     3    2
    10     3     4    1
    11     4     5   ar
    12     5     6   ar
    13     6     7    1
    14     6     8   ar
    15     8    12    1
    16    12    13   ar
    17    13    14   ar
    18    14    15   ar
    19    15    16   ar
    20    16    17    1
    21    16    18   ar
    22    18    19    1
    23     8     9   ar
    24     9    10   ar
    25    10    11    1
    26    11    29    1
    27    29    30    2
    28    29    31   am
    29    31    32    1
    30    31    33    1
    31    34    33    1
    32    34    35    1
    33    35    36    1
    34    36    37    1
    35    37    38    1
    36    27    28   ar
    37    28    22   ar
    38    11     1    1
    39    38    34    1
    40    10     4   ar
    41    18    12   ar
    42    19    20    1
    43    38    39    1
@<TRIPOS>MOLECULE
*****
 39 43 0 0 0
SMALL
GASTEIGER

@<TRIPOS>ATOM
      1 N         143.0919  140.1074  162.0921 N.pl3   1  UNL1       -0.2598
      2 C         143.9139  138.8921  162.4040 C.2     1  UNL1        0.1681
      3 N         144.0348  138.4116  163.8197 N.2     1  UNL1       -0.2278
      4 C         143.3337  139.1463  164.9236 C.ar    1  UNL1        0.0806
      5 C         143.4546  138.6657  166.3395 C.ar    1  UNL1        0.0146
      6 C         142.7535  139.4005  167.4434 C.ar    1  UNL1       -0.0203
      7 C         142.8744  138.9199  168.8591 C.3     1  UNL1        0.0311
      8 C         141.9314  140.6158  167.1314 C.ar    1  UNL1       -0.0011
      9 C         141.8105  141.0963  165.7157 C.ar    1  UNL1       -0.0009
     10 C         142.5116  140.3616  164.6118 C.ar    1  UNL1        0.0225
     11 C         142.3907  140.8421  163.1960 C.3     1  UNL1        0.1793
     12 C         141.2303  141.3505  168.2353 C.ar    1  UNL1        0.0357
     13 C         141.7986  142.6359  168.7599 C.ar    1  UNL1        0.0031
     14 C         141.0975  143.3706  169.8638 C.ar    1  UNL1        0.0025
     15 C         139.8280  142.8200  170.4431 C.ar    1  UNL1        0.0328
     16 C         139.2598  141.5348  169.9185 C.ar    1  UNL1        0.1735
     17 F         137.9905  140.9843  170.4978 F       1  UNL1       -0.2010
     18 C         139.9609  140.8001  168.8146 C.ar    1  UNL1        0.1609
     19 O         139.3927  139.5148  168.2900 O.3     1  UNL1       -0.5034
     20 H         138.5998  139.1709  168.6519 H       1  UNL1        0.2923
     21 C         140.3838  140.4447  157.6703 C.3     1  UNL1        0.0311
     22 C         141.6168  140.7566  158.4654 C.ar    1  UNL1       -0.0198
     23 C         142.7290  141.5491  157.8447 C.ar    1  UNL1        0.0072
     24 C         143.9620  141.8611  158.6399 C.ar    1  UNL1        0.0586
     25 CL        145.0741  142.6535  158.0192 Cl      1  UNL1       -0.0822
     26 C         144.0830  141.3805  160.0557 C.ar    1  UNL1        0.0263
     27 C         142.9709  140.5880  160.6763 C.ar    1  UNL1        0.0540
     28 C         141.7378  140.2760  159.8812 C.ar    1  UNL1        0.0107
     29 C         141.5686  142.0575  162.8841 C.2     1  UNL1        0.2485
     30 O         140.1030  141.9181  162.5972 O.2     1  UNL1       -0.2727
     31 N         142.2123  143.4121  162.8590 N.am    1  UNL1       -0.2748
     32 C         143.6781  143.5514  163.1459 C.3     1  UNL1        0.1150
     33 C         141.3903  144.6274  162.5471 C.3     1  UNL1        0.1091
     34 C         141.0547  144.9607  161.1237 C.3     1  UNL1        0.0741
     35 C         141.7853  144.4726  159.9080 C.3     1  UNL1        0.0189
     36 C         141.1116  145.0509  158.6989 C.3     1  UNL1        0.0185
     37 C         139.9647  145.8965  159.1674 C.3     1  UNL1        0.0686
     38 N         139.9295  145.8408  160.6659 N.3     1  UNL1       -0.2972
     39 H         139.0386  145.4535  160.9771 H       1  UNL1        0.1233
@<TRIPOS>BOND
     1    21    22    1
     2    22    23   ar
     3    23    24   ar
     4    24    25    1
     5    24    26   ar
     6    26    27   ar
     7    27     1    1
     8     1     2    1
     9     2     3    2
    10     3     4    1
    11     4     5   ar
    12     5     6   ar
    13     6     7    1
    14     6     8   ar
    15     8    12    1
    16    12    13   ar
    17    13    14   ar
    18    14    15   ar
    19    15    16   ar
    20    16    17    1
    21    16    18   ar
    22    18    19    1
    23     8     9   ar
    24     9    10   ar
    25    10    11    1
    26    11    29    1
    27    29    30    2
    28    29    31   am
    29    31    32    1
    30    31    33    1
    31    34    33    1
    32    34    35    1
    33    35    36    1
    34    36    37    1
    35    37    38    1
    36    27    28   ar
    37    28    22   ar
    38    11     1    1
    39    38    34    1
    40    10     4   ar
    41    18    12   ar
    42    19    20    1
    43    38    39    1
@<TRIPOS>MOLECULE
*****
 39 43 0 0 0
SMALL
GASTEIGER

@<TRIPOS>ATOM
      1 N         139.8208  143.6598  161.2416 N.pl3   1  UNL1       -0.2598
      2 C         140.4147  144.8446  160.5391 C.2     1  UNL1        0.1681
      3 N         140.3280  144.9518  159.0455 N.2     1  UNL1       -0.2278
      4 C         139.6475  143.8743  158.2544 C.ar    1  UNL1        0.0806
      5 C         139.5609  143.9816  156.7607 C.ar    1  UNL1        0.0146
      6 C         138.8804  142.9040  155.9696 C.ar    1  UNL1       -0.0203
      7 C         138.7938  143.0112  154.4760 C.3     1  UNL1        0.0311
      8 C         138.2865  141.7192  156.6722 C.ar    1  UNL1       -0.0011
      9 C         138.3732  141.6120  158.1658 C.ar    1  UNL1       -0.0009
     10 C         139.0537  142.6895  158.9569 C.ar    1  UNL1        0.0225
     11 C         139.1403  142.5823  160.4505 C.3     1  UNL1        0.1793
     12 C         137.6060  140.6416  155.8811 C.ar    1  UNL1        0.0357
     13 C         136.1323  140.7244  155.6141 C.ar    1  UNL1        0.0031
     14 C         135.4518  139.6468  154.8230 C.ar    1  UNL1        0.0025
     15 C         136.2451  138.4866  154.2989 C.ar    1  UNL1        0.0328
     16 C         137.7187  138.4039  154.5659 C.ar    1  UNL1        0.1735
     17 F         138.5119  137.2437  154.0419 F       1  UNL1       -0.2010
     18 C         138.3992  139.4814  155.3570 C.ar    1  UNL1        0.1609
     19 O         139.8729  139.3988  155.6240 O.3     1  UNL1       -0.5034
     20 H         140.3685  138.6740  155.2967 H       1  UNL1        0.2923
     21 C         141.8771  141.4762  165.4847 C.3     1  UNL1        0.0311
     22 C         140.9356  142.4607  164.8568 C.ar    1  UNL1       -0.0198
     23 C         140.0806  143.3379  165.7227 C.ar    1  UNL1        0.0072
     24 C         139.1391  144.3224  165.0948 C.ar    1  UNL1        0.0586
     25 CL        138.2841  145.1996  165.9606 Cl      1  UNL1       -0.0822
     26 C         139.0525  144.4297  163.6011 C.ar    1  UNL1        0.0263
     27 C         139.9074  143.5525  162.7353 C.ar    1  UNL1        0.0540
     28 C         140.8490  142.5680  163.3632 C.ar    1  UNL1        0.0107
     29 C         138.5464  141.3975  161.1532 C.2     1  UNL1        0.2485
     30 O         137.1782  141.4937  161.7602 O.2     1  UNL1       -0.2727
     31 N         139.3208  140.1164  161.2486 N.am    1  UNL1       -0.2748
     32 C         140.6891  140.0201  160.6415 C.3     1  UNL1        0.1150
     33 C         138.7270  138.9316  161.9512 C.3     1  UNL1        0.1091
     34 C         138.6356  138.9156  163.4483 C.3     1  UNL1        0.0741
     35 C         138.9722  137.7573  164.3399 C.3     1  UNL1        0.0189
     36 C         138.7362  138.1809  165.7593 C.3     1  UNL1        0.0185
     37 C         138.2538  139.6012  165.7450 C.3     1  UNL1        0.0686
     38 N         138.1917  140.0552  164.3168 N.3     1  UNL1       -0.2972
     39 H         138.8096  140.8552  164.1807 H       1  UNL1        0.1233
@<TRIPOS>BOND
     1    21    22    1
     2    22    23   ar
     3    23    24   ar
     4    24    25    1
     5    24    26   ar
     6    26    27   ar
     7    27     1    1
     8     1     2    1
     9     2     3    2
    10     3     4    1
    11     4     5   ar
    12     5     6   ar
    13     6     7    1
    14     6     8   ar
    15     8    12    1
    16    12    13   ar
    17    13    14   ar
    18    14    15   ar
    19    15    16   ar
    20    16    17    1
    21    16    18   ar
    22    18    19    1
    23     8     9   ar
    24     9    10   ar
    25    10    11    1
    26    11    29    1
    27    29    30    2
    28    29    31   am
    29    31    32    1
    30    31    33    1
    31    34    33    1
    32    34    35    1
    33    35    36    1
    34    36    37    1
    35    37    38    1
    36    27    28   ar
    37    28    22   ar
    38    11     1    1
    39    38    34    1
    40    10     4   ar
    41    18    12   ar
    42    19    20    1
    43    38    39    1
@<TRIPOS>MOLECULE
*****
 39 43 0 0 0
SMALL
GASTEIGER

@<TRIPOS>ATOM
      1 N         143.0699  139.9745  162.0340 N.pl3   1  UNL1       -0.2598
      2 C         143.9379  138.7892  162.3366 C.2     1  UNL1        0.1681
      3 N         144.1003  138.3204  163.7521 N.2     1  UNL1       -0.2278
      4 C         143.3947  139.0370  164.8651 C.ar    1  UNL1        0.0806
      5 C         143.5572  138.5682  166.2807 C.ar    1  UNL1        0.0146
      6 C         142.8516  139.2848  167.3937 C.ar    1  UNL1       -0.0203
      7 C         143.0140  138.8161  168.8092 C.3     1  UNL1        0.0311
      8 C         141.9836  140.4702  167.0910 C.ar    1  UNL1       -0.0011
      9 C         141.8212  140.9389  165.6754 C.ar    1  UNL1       -0.0009
     10 C         142.5268  140.2223  164.5625 C.ar    1  UNL1        0.0225
     11 C         142.3644  140.6911  163.1469 C.3     1  UNL1        0.1793
     12 C         141.2781  141.1868  168.2040 C.ar    1  UNL1        0.0357
     13 C         141.8644  142.4426  168.7780 C.ar    1  UNL1        0.0031
     14 C         141.1589  143.1592  169.8909 C.ar    1  UNL1        0.0025
     15 C         139.8670  142.6200  170.4299 C.ar    1  UNL1        0.0328
     16 C         139.2807  141.3643  169.8559 C.ar    1  UNL1        0.1735
     17 F         137.9889  140.8252  170.3949 F       1  UNL1       -0.2010
     18 C         139.9863  140.6477  168.7430 C.ar    1  UNL1        0.1609
     19 O         139.4000  139.3920  168.1690 O.3     1  UNL1       -0.5034
     20 H         138.5930  139.0553  168.5057 H       1  UNL1        0.2923
     21 C         140.3863  140.0077  157.5846 C.3     1  UNL1        0.0311
     22 C         141.5656  140.4599  158.3937 C.ar    1  UNL1       -0.0198
     23 C         142.5826  141.3808  157.7871 C.ar    1  UNL1        0.0072
     24 C         143.7620  141.8329  158.5962 C.ar    1  UNL1        0.0586
     25 CL        144.7789  142.7538  157.9898 Cl      1  UNL1       -0.0822
     26 C         143.9244  141.3641  160.0119 C.ar    1  UNL1        0.0263
     27 C         142.9075  140.4433  160.6183 C.ar    1  UNL1        0.0540
     28 C         141.7281  139.9911  159.8092 C.ar    1  UNL1        0.0107
     29 C         141.4964  141.8765  162.8443 C.2     1  UNL1        0.2485
     30 O         140.0435  141.6807  162.5269 O.2     1  UNL1       -0.2727
     31 N         142.0814  143.2576  162.8590 N.am    1  UNL1       -0.2748
     32 C         143.5343  143.4534  163.1764 C.3     1  UNL1        0.1150
     33 C         141.2135  144.4430  162.5563 C.3     1  UNL1        0.1091
     34 C         139.8265  144.5210  163.1221 C.3     1  UNL1        0.0741
     35 C         139.4729  144.6772  164.5715 C.3     1  UNL1        0.0189
     36 C         137.9774  144.7092  164.6830 C.3     1  UNL1        0.0185
     37 C         137.4066  144.5727  163.3026 C.3     1  UNL1        0.0686
     38 N         138.5494  144.4564  162.3380 N.3     1  UNL1       -0.2972
     39 H         138.5158  145.2242  161.6673 H       1  UNL1        0.1233
@<TRIPOS>BOND
     1    21    22    1
     2    22    23   ar
     3    23    24   ar
     4    24    25    1
     5    24    26   ar
     6    26    27   ar
     7    27     1    1
     8     1     2    1
     9     2     3    2
    10     3     4    1
    11     4     5   ar
    12     5     6   ar
    13     6     7    1
    14     6     8   ar
    15     8    12    1
    16    12    13   ar
    17    13    14   ar
    18    14    15   ar
    19    15    16   ar
    20    16    17    1
    21    16    18   ar
    22    18    19    1
    23     8     9   ar
    24     9    10   ar
    25    10    11    1
    26    11    29    1
    27    29    30    2
    28    29    31   am
    29    31    32    1
    30    31    33    1
    31    34    33    1
    32    34    35    1
    33    35    36    1
    34    36    37    1
    35    37    38    1
    36    27    28   ar
    37    28    22   ar
    38    11     1    1
    39    38    34    1
    40    10     4   ar
    41    18    12   ar
    42    19    20    1
    43    38    39    1
@<TRIPOS>MOLECULE
*****
 39 43 0 0 0
SMALL
GASTEIGER

@<TRIPOS>ATOM
      1 N         142.0360  139.1216  162.3892 N.pl3   1  UNL1       -0.2598
      2 C         143.1836  138.1678  162.2369 C.2     1  UNL1        0.1681
      3 N         143.4771  137.5551  160.8996 N.2     1  UNL1       -0.2278
      4 C         142.6229  137.8962  159.7146 C.ar    1  UNL1        0.0806
      5 C         142.9165  137.2835  158.3773 C.ar    1  UNL1        0.0146
      6 C         142.0623  137.6245  157.1923 C.ar    1  UNL1       -0.0203
      7 C         142.3558  137.0118  155.8550 C.3     1  UNL1        0.0311
      8 C         140.9147  138.5783  157.3447 C.ar    1  UNL1       -0.0011
      9 C         140.6212  139.1910  158.6820 C.ar    1  UNL1       -0.0009
     10 C         141.4753  138.8500  159.8670 C.ar    1  UNL1        0.0225
     11 C         141.1818  139.4626  161.2043 C.3     1  UNL1        0.1793
     12 C         140.0605  138.9194  156.1598 C.ar    1  UNL1        0.0357
     13 C         140.2510  140.2267  155.4493 C.ar    1  UNL1        0.0031
     14 C         139.3969  140.5678  154.2644 C.ar    1  UNL1        0.0025
     15 C         138.3522  139.6015  153.7899 C.ar    1  UNL1        0.0328
     16 C         138.1618  138.2943  154.5003 C.ar    1  UNL1        0.1735
     17 F         137.1172  137.3281  154.0258 F       1  UNL1       -0.2010
     18 C         139.0159  137.9532  155.6852 C.ar    1  UNL1        0.1609
     19 O         138.8254  136.6460  156.3957 O.3     1  UNL1       -0.5034
     20 H         138.1729  136.0424  156.0993 H       1  UNL1        0.2923
     21 C         139.1057  139.3862  166.6722 C.3     1  UNL1        0.0311
     22 C         140.2773  139.8666  165.8680 C.ar    1  UNL1       -0.0198
     23 C         141.1553  140.9597  166.4013 C.ar    1  UNL1        0.0072
     24 C         142.3269  141.4401  165.5971 C.ar    1  UNL1        0.0586
     25 CL        143.2049  142.5332  166.1302 Cl      1  UNL1       -0.0822
     26 C         142.6204  140.8274  164.2597 C.ar    1  UNL1        0.0263
     27 C         141.7424  139.7343  163.7266 C.ar    1  UNL1        0.0540
     28 C         140.5708  139.2539  164.5308 C.ar    1  UNL1        0.0107
     29 C         140.0341  140.4165  161.3567 C.2     1  UNL1        0.2485
     30 O         140.2652  141.8935  161.2344 O.2     1  UNL1       -0.2727
     31 N         138.6555  139.8932  161.6313 N.am    1  UNL1       -0.2748
     32 C         138.4245  138.4160  161.7536 C.3     1  UNL1        0.1150
     33 C         137.5078  140.8469  161.7837 C.3     1  UNL1        0.1091
     34 C         137.6681  142.0869  162.6124 C.3     1  UNL1        0.0741
     35 C         137.8113  142.1377  164.1047 C.3     1  UNL1        0.0189
     36 C         137.9450  143.5760  164.5089 C.3     1  UNL1        0.0185
     37 C         137.8844  144.4142  163.2664 C.3     1  UNL1        0.0686
     38 N         137.7133  143.4938  162.0943 N.3     1  UNL1       -0.2972
     39 H         138.4986  143.6012  161.4523 H       1  UNL1        0.1233
@<TRIPOS>BOND
     1    21    22    1
     2    22    23   ar
     3    23    24   ar
     4    24    25    1
     5    24    26   ar
     6    26    27   ar
     7    27     1    1
     8     1     2    1
     9     2     3    2
    10     3     4    1
    11     4     5   ar
    12     5     6   ar
    13     6     7    1
    14     6     8   ar
    15     8    12    1
    16    12    13   ar
    17    13    14   ar
    18    14    15   ar
    19    15    16   ar
    20    16    17    1
    21    16    18   ar
    22    18    19    1
    23     8     9   ar
    24     9    10   ar
    25    10    11    1
    26    11    29    1
    27    29    30    2
    28    29    31   am
    29    31    32    1
    30    31    33    1
    31    34    33    1
    32    34    35    1
    33    35    36    1
    34    36    37    1
    35    37    38    1
    36    27    28   ar
    37    28    22   ar
    38    11     1    1
    39    38    34    1
    40    10     4   ar
    41    18    12   ar
    42    19    20    1
    43    38    39    1
@<TRIPOS>MOLECULE
*****
 39 43 0 0 0
SMALL
GASTEIGER

@<TRIPOS>ATOM
      1 N         140.8585  139.8563  159.3563 N.pl3   1  UNL1       -0.2598
      2 C         139.9158  138.7124  159.1269 C.2     1  UNL1        0.1681
      3 N         139.2854  138.0142  160.2952 N.2     1  UNL1       -0.2278
      4 C         139.5977  138.4599  161.6930 C.ar    1  UNL1        0.0806
      5 C         138.9673  137.7616  162.8614 C.ar    1  UNL1        0.0146
      6 C         139.2796  138.2073  164.2592 C.ar    1  UNL1       -0.0203
      7 C         138.6492  137.5091  165.4275 C.3     1  UNL1        0.0311
      8 C         140.2224  139.3513  164.4886 C.ar    1  UNL1       -0.0011
      9 C         140.8528  140.0495  163.3202 C.ar    1  UNL1       -0.0009
     10 C         140.5404  139.6038  161.9225 C.ar    1  UNL1        0.0225
     11 C         141.1708  140.3020  160.7541 C.3     1  UNL1        0.1793
     12 C         140.5347  139.7969  165.8864 C.ar    1  UNL1        0.0357
     13 C         139.6247  140.7620  166.5868 C.ar    1  UNL1        0.0031
     14 C         139.9370  141.2077  167.9846 C.ar    1  UNL1        0.0025
     15 C         141.1594  140.6883  168.6819 C.ar    1  UNL1        0.0328
     16 C         142.0693  139.7233  167.9815 C.ar    1  UNL1        0.1735
     17 F         143.2916  139.2040  168.6788 F       1  UNL1       -0.2010
     18 C         141.7570  139.2776  166.5837 C.ar    1  UNL1        0.1609
     19 O         142.6670  138.3126  165.8832 O.3     1  UNL1       -0.5034
     20 H         143.4305  137.9882  166.3188 H       1  UNL1        0.2923
     21 C         140.7260  143.5759  155.7305 C.3     1  UNL1        0.0311
     22 C         141.4227  142.4144  156.3751 C.ar    1  UNL1       -0.0198
     23 C         142.7498  141.9511  155.8513 C.ar    1  UNL1        0.0072
     24 C         143.4464  140.7896  156.4959 C.ar    1  UNL1        0.0586
     25 CL        144.7735  140.3263  155.9722 Cl      1  UNL1       -0.0822
     26 C         142.8160  140.0913  157.6643 C.ar    1  UNL1        0.0263
     27 C         141.4890  140.5546  158.1880 C.ar    1  UNL1        0.0540
     28 C         140.7923  141.7161  157.5434 C.ar    1  UNL1        0.0107
     29 C         142.1136  141.4460  160.9835 C.2     1  UNL1        0.2485
     30 O         141.5939  142.8528  161.0080 O.2     1  UNL1       -0.2727
     31 N         143.5761  141.1830  161.1885 N.am    1  UNL1       -0.2748
     32 C         144.0958  139.7760  161.1640 C.3     1  UNL1        0.1150
     33 C         144.5189  142.3269  161.4179 C.3     1  UNL1        0.1091
     34 C         144.2727  143.2876  162.5432 C.3     1  UNL1        0.0741
     35 C         144.4830  143.0093  164.0021 C.3     1  UNL1        0.0189
     36 C         144.1133  144.2450  164.7678 C.3     1  UNL1        0.0185
     37 C         143.6744  145.2870  163.7821 C.3     1  UNL1        0.0686
     38 N         143.7729  144.6953  162.4073 N.3     1  UNL1       -0.2972
     39 H         144.4235  145.2405  161.8417 H       1  UNL1        0.1233
@<TRIPOS>BOND
     1    21    22    1
     2    22    23   ar
     3    23    24   ar
     4    24    25    1
     5    24    26   ar
     6    26    27   ar
     7    27     1    1
     8     1     2    1
     9     2     3    2
    10     3     4    1
    11     4     5   ar
    12     5     6   ar
    13     6     7    1
    14     6     8   ar
    15     8    12    1
    16    12    13   ar
    17    13    14   ar
    18    14    15   ar
    19    15    16   ar
    20    16    17    1
    21    16    18   ar
    22    18    19    1
    23     8     9   ar
    24     9    10   ar
    25    10    11    1
    26    11    29    1
    27    29    30    2
    28    29    31   am
    29    31    32    1
    30    31    33    1
    31    34    33    1
    32    34    35    1
    33    35    36    1
    34    36    37    1
    35    37    38    1
    36    27    28   ar
    37    28    22   ar
    38    11     1    1
    39    38    34    1
    40    10     4   ar
    41    18    12   ar
    42    19    20    1
    43    38    39    1
