@<TRIPOS>MOLECULE
*****
 36 38 0 0 0
SMALL
GASTEIGER

@<TRIPOS>ATOM
      1 C         141.2202  142.8733  164.6311 C.ar    1  UNL1       -0.0185
      2 C         142.5772  142.3766  165.0336 C.ar    1  UNL1       -0.0041
      3 C         142.8785  142.1051  166.4776 C.ar    1  UNL1        0.0057
      4 C         141.8229  142.3301  167.5193 C.ar    1  UNL1        0.0696
      5 C         140.4660  142.8268  167.1169 C.ar    1  UNL1        0.0095
      6 C         140.1646  143.0984  165.6728 C.ar    1  UNL1        0.0677
      7 C         140.0146  143.9595  158.8547 C.2     1  UNL1        0.2490
      8 O         140.2684  145.3211  158.2788 O.2     1  UNL1       -0.2699
      9 N         140.3160  143.6880  160.2988 N.am    1  UNL1       -0.2761
     10 C         140.0623  142.3264  160.8748 C.3     1  UNL1        0.0940
     11 C         140.3637  142.0548  162.3189 C.3     1  UNL1        0.0259
     12 C         140.9188  143.1449  163.1870 C.3     1  UNL1        0.0257
     13 C         141.1726  144.5064  162.6111 C.3     1  UNL1        0.0259
     14 C         140.8712  144.7780  161.1669 C.3     1  UNL1        0.0940
     15 C         138.3492  140.6894  156.2503 C.ar    1  UNL1        0.0685
     16 C         137.4226  141.5565  157.0501 C.ar    1  UNL1        0.0104
     17 C         137.9778  142.6465  157.9182 C.ar    1  UNL1        0.0052
     18 C         139.4595  142.8695  157.9866 C.ar    1  UNL1        0.0536
     19 C         140.3860  142.0025  157.1868 C.ar    1  UNL1        0.0052
     20 C         139.8309  140.9125  156.3187 C.ar    1  UNL1        0.0104
     21 N         137.2389  138.5094  154.5140 N.1     1  UNL1       -0.1908
     22 C         137.7940  139.5994  155.3822 C.1     1  UNL1        0.1004
     23 C         142.1243  142.0586  168.9634 C.2     1  UNL1        0.3078
     24 O         142.1221  143.1844  169.9546 O.2     1  UNL1       -0.2516
     25 N         142.4279  140.6612  169.4163 N.am    1  UNL1       -0.1708
     26 H         142.4293  139.9223  168.7658 H       1  UNL1        0.2545
     27 C         142.7293  140.3897  170.8604 C.2     1  UNL1        0.3751
     28 N         141.8713  140.9941  171.9321 N.pl3   1  UNL1       -0.1313
     29 N         143.8886  139.5137  171.2328 N.pl3   1  UNL1       -0.2906
     30 H         141.1104  141.5690  171.6877 H       1  UNL1        0.3060
     31 H         144.4517  139.1169  170.5294 H       1  UNL1        0.2545
     32 H         144.0864  139.3355  172.1806 H       1  UNL1        0.2545
     33 C         138.8076  143.5950  165.2703 C.3     1  UNL1        0.4183
     34 F         137.4507  144.0917  164.8678 F       1  UNL1       -0.1659
     35 F         139.2794  145.0103  165.4263 F       1  UNL1       -0.1659
     36 F         138.3358  142.1798  165.1143 F       1  UNL1       -0.1659
@<TRIPOS>BOND
     1    21    22    3
     2    22    15    1
     3    15    16   ar
     4    16    17   ar
     5    17    18   ar
     6    18     7    1
     7     7     8    2
     8     7     9   am
     9     9    10    1
    10    10    11    1
    11    11    12    1
    12    12     1    1
    13     1     2   ar
    14     2     3   ar
    15     3     4   ar
    16     4    23    1
    17    23    24    2
    18    23    25   am
    19    25    27    1
    20    27    28    2
    21    27    29    1
    22     4     5   ar
    23     5     6   ar
    24     6    33    1
    25    33    34    1
    26    33    35    1
    27    33    36    1
    28    12    13    1
    29    13    14    1
    30    18    19   ar
    31    19    20   ar
    32    20    15   ar
    33    14     9    1
    34     6     1   ar
    35    25    26    1
    36    28    30    1
    37    29    31    1
    38    29    32    1
@<TRIPOS>MOLECULE
*****
 36 38 0 0 0
SMALL
GASTEIGER

@<TRIPOS>ATOM
      1 C         139.7219  141.2870  164.8168 C.ar    1  UNL1       -0.0185
      2 C         140.1554  142.6700  165.2034 C.ar    1  UNL1       -0.0041
      3 C         140.5060  142.9748  166.6296 C.ar    1  UNL1        0.0057
      4 C         140.4230  141.8968  167.6692 C.ar    1  UNL1        0.0696
      5 C         139.9894  140.5138  167.2827 C.ar    1  UNL1        0.0095
      6 C         139.6389  140.2090  165.8565 C.ar    1  UNL1        0.0677
      7 C         138.3197  140.0673  159.1118 C.2     1  UNL1        0.2490
      8 O         136.8843  140.0654  158.6763 O.2     1  UNL1       -0.2699
      9 N         138.6702  140.3722  160.5381 N.am    1  UNL1       -0.2761
     10 C         140.1056  140.3742  160.9737 C.3     1  UNL1        0.0940
     11 C         140.4561  140.6791  162.3999 C.3     1  UNL1        0.0259
     12 C         139.3713  140.9821  163.3905 C.3     1  UNL1        0.0257
     13 C         137.9359  140.9802  162.9550 C.3     1  UNL1        0.0259
     14 C         137.5854  140.6752  161.5287 C.3     1  UNL1        0.0940
     15 C         141.5741  139.1584  156.1399 C.ar    1  UNL1        0.0685
     16 C         140.9466  138.0472  156.9282 C.ar    1  UNL1        0.0104
     17 C         139.8618  138.3502  157.9188 C.ar    1  UNL1        0.0052
     18 C         139.4045  139.7644  158.1212 C.ar    1  UNL1        0.0536
     19 C         140.0320  140.8755  157.3329 C.ar    1  UNL1        0.0052
     20 C         141.1168  140.5726  156.3423 C.ar    1  UNL1        0.0104
     21 N         143.7438  138.5525  154.1586 N.1     1  UNL1       -0.1908
     22 C         142.6590  138.8554  155.1493 C.1     1  UNL1        0.1004
     23 C         140.7735  142.2017  169.0955 C.2     1  UNL1        0.3078
     24 O         139.7202  142.1213  170.1604 O.2     1  UNL1       -0.2516
     25 N         142.1774  142.5870  169.4568 N.am    1  UNL1       -0.1708
     26 H         142.8688  142.6397  168.7579 H       1  UNL1        0.2545
     27 C         142.5279  142.8919  170.8831 C.2     1  UNL1        0.3751
     28 N         141.9582  142.0560  171.9906 N.pl3   1  UNL1       -0.1313
     29 N         143.4482  144.0328  171.2018 N.pl3   1  UNL1       -0.2906
     30 H         141.3542  141.3072  171.7814 H       1  UNL1        0.3060
     31 H         143.8222  144.5814  170.4749 H       1  UNL1        0.2545
     32 H         143.6783  144.2329  172.1379 H       1  UNL1        0.2545
     33 C         139.2053  138.8260  165.4698 C.3     1  UNL1        0.4183
     34 F         138.7717  137.4431  165.0833 F       1  UNL1       -0.1659
     35 F         137.7877  139.1738  165.8155 F       1  UNL1       -0.1659
     36 F         140.6228  138.4781  165.1242 F       1  UNL1       -0.1659
@<TRIPOS>BOND
     1    21    22    3
     2    22    15    1
     3    15    16   ar
     4    16    17   ar
     5    17    18   ar
     6    18     7    1
     7     7     8    2
     8     7     9   am
     9     9    10    1
    10    10    11    1
    11    11    12    1
    12    12     1    1
    13     1     2   ar
    14     2     3   ar
    15     3     4   ar
    16     4    23    1
    17    23    24    2
    18    23    25   am
    19    25    27    1
    20    27    28    2
    21    27    29    1
    22     4     5   ar
    23     5     6   ar
    24     6    33    1
    25    33    34    1
    26    33    35    1
    27    33    36    1
    28    12    13    1
    29    13    14    1
    30    18    19   ar
    31    19    20   ar
    32    20    15   ar
    33    14     9    1
    34     6     1   ar
    35    25    26    1
    36    28    30    1
    37    29    31    1
    38    29    32    1
@<TRIPOS>MOLECULE
*****
 36 38 0 0 0
SMALL
GASTEIGER

@<TRIPOS>ATOM
      1 C         139.0990  139.6367  167.3122 C.ar    1  UNL1       -0.0185
      2 C         137.9042  138.7374  167.1955 C.ar    1  UNL1       -0.0041
      3 C         137.0832  138.4197  168.4099 C.ar    1  UNL1        0.0057
      4 C         137.4569  139.0013  169.7411 C.ar    1  UNL1        0.0696
      5 C         138.6517  139.9006  169.8578 C.ar    1  UNL1        0.0095
      6 C         139.4727  140.2183  168.6434 C.ar    1  UNL1        0.0677
      7 C         142.3834  140.9077  162.4545 C.2     1  UNL1        0.2490
      8 O         143.6623  140.1667  162.1989 O.2     1  UNL1       -0.2699
      9 N         141.5624  140.5899  163.6689 N.am    1  UNL1       -0.2761
     10 C         140.2834  141.3309  163.9245 C.3     1  UNL1        0.0940
     11 C         139.4624  141.0132  165.1389 C.3     1  UNL1        0.0259
     12 C         139.9202  139.9544  166.0978 C.3     1  UNL1        0.0257
     13 C         141.1990  139.2134  165.8422 C.3     1  UNL1        0.0259
     14 C         142.0202  139.5312  164.6278 C.3     1  UNL1        0.0940
     15 C         141.0100  144.0839  159.5778 C.ar    1  UNL1        0.0685
     16 C         140.6078  142.6547  159.3650 C.ar    1  UNL1        0.0104
     17 C         141.0656  141.5959  160.3239 C.ar    1  UNL1        0.0052
     18 C         141.9256  141.9664  161.4956 C.ar    1  UNL1        0.0536
     19 C         142.3279  143.3957  161.7084 C.ar    1  UNL1        0.0052
     20 C         141.8701  144.4544  160.7495 C.ar    1  UNL1        0.0104
     21 N         140.0944  146.2014  157.6601 N.1     1  UNL1       -0.1908
     22 C         140.5522  145.1427  158.6190 C.1     1  UNL1        0.1004
     23 C         136.6357  138.6836  170.9555 C.2     1  UNL1        0.3078
     24 O         135.9288  139.7830  171.6915 O.2     1  UNL1       -0.2516
     25 N         136.5215  137.2666  171.4339 N.am    1  UNL1       -0.1708
     26 H         136.9855  136.5450  170.9509 H       1  UNL1        0.2545
     27 C         135.7004  136.9489  172.6483 C.2     1  UNL1        0.3751
     28 N         134.7129  137.9508  173.1691 N.pl3   1  UNL1       -0.1313
     29 N         135.8667  135.6293  173.3420 N.pl3   1  UNL1       -0.2906
     30 H         134.6038  138.8168  172.7139 H       1  UNL1        0.3060
     31 H         136.5148  134.9717  173.0002 H       1  UNL1        0.2545
     32 H         135.3278  135.4208  174.1391 H       1  UNL1        0.2545
     33 C         140.6676  141.1177  168.7601 C.3     1  UNL1        0.4183
     34 F         141.8624  142.0170  168.8768 F       1  UNL1       -0.1659
     35 F         141.5280  139.9325  169.0840 F       1  UNL1       -0.1659
     36 F         139.8072  142.3029  168.4363 F       1  UNL1       -0.1659
@<TRIPOS>BOND
     1    21    22    3
     2    22    15    1
     3    15    16   ar
     4    16    17   ar
     5    17    18   ar
     6    18     7    1
     7     7     8    2
     8     7     9   am
     9     9    10    1
    10    10    11    1
    11    11    12    1
    12    12     1    1
    13     1     2   ar
    14     2     3   ar
    15     3     4   ar
    16     4    23    1
    17    23    24    2
    18    23    25   am
    19    25    27    1
    20    27    28    2
    21    27    29    1
    22     4     5   ar
    23     5     6   ar
    24     6    33    1
    25    33    34    1
    26    33    35    1
    27    33    36    1
    28    12    13    1
    29    13    14    1
    30    18    19   ar
    31    19    20   ar
    32    20    15   ar
    33    14     9    1
    34     6     1   ar
    35    25    26    1
    36    28    30    1
    37    29    31    1
    38    29    32    1
@<TRIPOS>MOLECULE
*****
 36 38 0 0 0
SMALL
GASTEIGER

@<TRIPOS>ATOM
      1 C         140.3619  141.4056  166.8150 C.ar    1  UNL1       -0.0185
      2 C         140.5072  142.0226  168.1744 C.ar    1  UNL1       -0.0041
      3 C         139.8714  141.3700  169.3660 C.ar    1  UNL1        0.0057
      4 C         139.0904  140.1004  169.1982 C.ar    1  UNL1        0.0696
      5 C         138.9452  139.4834  167.8387 C.ar    1  UNL1        0.0095
      6 C         139.5809  140.1360  166.6471 C.ar    1  UNL1        0.0677
      7 C         142.9049  144.0158  162.0484 C.2     1  UNL1        0.2490
      8 O         144.3255  144.4914  162.1227 O.2     1  UNL1       -0.2699
      9 N         142.2692  143.3633  163.2400 N.am    1  UNL1       -0.2761
     10 C         140.8485  142.8876  163.1658 C.3     1  UNL1        0.0940
     11 C         140.2128  142.2351  164.3574 C.3     1  UNL1        0.0259
     12 C         140.9977  142.0582  165.6233 C.3     1  UNL1        0.0257
     13 C         142.4183  142.5338  165.6976 C.3     1  UNL1        0.0259
     14 C         143.0541  143.1864  164.5060 C.3     1  UNL1        0.0940
     15 C         140.5502  144.5465  158.2506 C.ar    1  UNL1        0.0685
     16 C         140.2703  145.4230  159.4352 C.ar    1  UNL1        0.0104
     17 C         141.0552  145.2461  160.7012 C.ar    1  UNL1        0.0052
     18 C         142.1200  144.1927  160.7824 C.ar    1  UNL1        0.0536
     19 C         142.3999  143.3163  159.5978 C.ar    1  UNL1        0.0052
     20 C         141.6149  143.4932  158.3318 C.ar    1  UNL1        0.0104
     21 N         138.9803  144.9003  155.7187 N.1     1  UNL1       -0.1908
     22 C         139.7652  144.7234  156.9846 C.1     1  UNL1        0.1004
     23 C         138.4546  139.4479  170.3898 C.2     1  UNL1        0.3078
     24 O         139.2674  139.1828  171.6223 O.2     1  UNL1       -0.2516
     25 N         137.0061  139.0604  170.3489 N.am    1  UNL1       -0.1708
     26 H         136.4727  139.2344  169.5400 H       1  UNL1        0.2545
     27 C         136.3704  138.4079  171.5406 C.2     1  UNL1        0.3751
     28 N         135.3941  139.1739  172.3833 N.pl3   1  UNL1       -0.1313
     29 N         136.7110  136.9893  171.8896 N.pl3   1  UNL1       -0.2906
     30 H         135.1706  140.1049  172.1542 H       1  UNL1        0.3060
     31 H         137.3518  136.4866  171.3365 H       1  UNL1        0.2545
     32 H         136.2938  136.5610  172.6717 H       1  UNL1        0.2545
     33 C         139.4357  139.5190  165.2876 C.3     1  UNL1        0.4183
     34 F         139.2905  138.9020  163.9281 F       1  UNL1       -0.1659
     35 F         138.0385  140.0563  165.1930 F       1  UNL1       -0.1659
     36 F         140.8329  138.9816  165.3822 F       1  UNL1       -0.1659
@<TRIPOS>BOND
     1    21    22    3
     2    22    15    1
     3    15    16   ar
     4    16    17   ar
     5    17    18   ar
     6    18     7    1
     7     7     8    2
     8     7     9   am
     9     9    10    1
    10    10    11    1
    11    11    12    1
    12    12     1    1
    13     1     2   ar
    14     2     3   ar
    15     3     4   ar
    16     4    23    1
    17    23    24    2
    18    23    25   am
    19    25    27    1
    20    27    28    2
    21    27    29    1
    22     4     5   ar
    23     5     6   ar
    24     6    33    1
    25    33    34    1
    26    33    35    1
    27    33    36    1
    28    12    13    1
    29    13    14    1
    30    18    19   ar
    31    19    20   ar
    32    20    15   ar
    33    14     9    1
    34     6     1   ar
    35    25    26    1
    36    28    30    1
    37    29    31    1
    38    29    32    1
@<TRIPOS>MOLECULE
*****
 36 38 0 0 0
SMALL
GASTEIGER

@<TRIPOS>ATOM
      1 C         141.5010  143.0181  164.4675 C.ar    1  UNL1       -0.0185
      2 C         140.4151  142.8773  165.4926 C.ar    1  UNL1       -0.0041
      3 C         140.7610  142.5167  166.9068 C.ar    1  UNL1        0.0057
      4 C         142.1928  142.2968  167.2960 C.ar    1  UNL1        0.0696
      5 C         143.2788  142.4376  166.2709 C.ar    1  UNL1        0.0095
      6 C         142.9328  142.7982  164.8566 C.ar    1  UNL1        0.0677
      7 C         140.1174  144.4606  158.8101 C.2     1  UNL1        0.2490
      8 O         140.0941  145.8995  158.3873 O.2     1  UNL1       -0.2699
      9 N         140.4633  144.1000  160.2244 N.am    1  UNL1       -0.2761
     10 C         140.4865  142.6610  160.6473 C.3     1  UNL1        0.0940
     11 C         140.8324  142.3004  162.0616 C.3     1  UNL1        0.0259
     12 C         141.1551  143.3787  163.0531 C.3     1  UNL1        0.0257
     13 C         141.1318  144.8177  162.6303 C.3     1  UNL1        0.0259
     14 C         140.7859  145.1784  161.2159 C.3     1  UNL1        0.0940
     15 C         139.1494  141.2255  155.8357 C.ar    1  UNL1        0.0685
     16 C         138.0725  141.7741  156.7241 C.ar    1  UNL1        0.0104
     17 C         138.3952  142.8525  157.7156 C.ar    1  UNL1        0.0052
     18 C         139.7947  143.3822  157.8187 C.ar    1  UNL1        0.0536
     19 C         140.8716  142.8336  156.9302 C.ar    1  UNL1        0.0052
     20 C         140.5489  141.7552  155.9388 C.ar    1  UNL1        0.0104
     21 N         138.5041  139.0688  153.8527 N.1     1  UNL1       -0.1908
     22 C         138.8267  140.1471  154.8442 C.1     1  UNL1        0.1004
     23 C         142.5388  141.9361  168.7104 C.2     1  UNL1        0.3078
     24 O         143.7024  142.5956  169.3894 O.2     1  UNL1       -0.2516
     25 N         141.7210  140.9160  169.4457 N.am    1  UNL1       -0.1708
     26 H         140.9573  140.4832  169.0000 H       1  UNL1        0.2545
     27 C         142.0670  140.5554  170.8599 C.2     1  UNL1        0.3751
     28 N         141.0819  140.8118  171.9617 N.pl3   1  UNL1       -0.1313
     29 N         143.3980  139.9384  171.1725 N.pl3   1  UNL1       -0.2906
     30 H         140.2083  141.2168  171.7566 H       1  UNL1        0.3060
     31 H         144.0446  139.7701  170.4494 H       1  UNL1        0.2545
     32 H         143.6251  139.7017  172.1008 H       1  UNL1        0.2545
     33 C         144.0188  142.9390  163.8314 C.3     1  UNL1        0.4183
     34 F         145.1047  143.0799  162.8063 F       1  UNL1       -0.1659
     35 F         144.1713  144.3870  164.1919 F       1  UNL1       -0.1659
     36 F         143.8663  141.4911  163.4709 F       1  UNL1       -0.1659
@<TRIPOS>BOND
     1    21    22    3
     2    22    15    1
     3    15    16   ar
     4    16    17   ar
     5    17    18   ar
     6    18     7    1
     7     7     8    2
     8     7     9   am
     9     9    10    1
    10    10    11    1
    11    11    12    1
    12    12     1    1
    13     1     2   ar
    14     2     3   ar
    15     3     4   ar
    16     4    23    1
    17    23    24    2
    18    23    25   am
    19    25    27    1
    20    27    28    2
    21    27    29    1
    22     4     5   ar
    23     5     6   ar
    24     6    33    1
    25    33    34    1
    26    33    35    1
    27    33    36    1
    28    12    13    1
    29    13    14    1
    30    18    19   ar
    31    19    20   ar
    32    20    15   ar
    33    14     9    1
    34     6     1   ar
    35    25    26    1
    36    28    30    1
    37    29    31    1
    38    29    32    1
@<TRIPOS>MOLECULE
*****
 36 38 0 0 0
SMALL
GASTEIGER

@<TRIPOS>ATOM
      1 C         141.3923  139.8528  164.4548 C.ar    1  UNL1       -0.0185
      2 C         139.9633  140.1191  164.8250 C.ar    1  UNL1       -0.0041
      3 C         139.5964  140.3869  166.2545 C.ar    1  UNL1        0.0057
      4 C         140.6584  140.3884  167.3138 C.ar    1  UNL1        0.0696
      5 C         142.0874  140.1221  166.9436 C.ar    1  UNL1        0.0095
      6 C         142.4543  139.8543  165.5141 C.ar    1  UNL1        0.0677
      7 C         142.8603  138.7816  158.7366 C.2     1  UNL1        0.2490
      8 O         143.0130  137.3698  158.2533 O.2     1  UNL1       -0.2699
      9 N         142.4933  139.0493  160.1661 N.am    1  UNL1       -0.2761
     10 C         142.3406  140.4612  160.6495 C.3     1  UNL1        0.0940
     11 C         141.9736  140.7289  162.0790 C.3     1  UNL1        0.0259
     12 C         141.7593  139.5850  163.0252 C.3     1  UNL1        0.0257
     13 C         141.9120  138.1732  162.5420 C.3     1  UNL1        0.0259
     14 C         142.2790  137.9054  161.1124 C.3     1  UNL1        0.0940
     15 C         143.5032  142.2135  155.8978 C.ar    1  UNL1        0.0685
     16 C         144.6351  141.7245  156.7519 C.ar    1  UNL1        0.0104
     17 C         144.4208  140.5806  157.6982 C.ar    1  UNL1        0.0052
     18 C         143.0746  139.9256  157.7903 C.ar    1  UNL1        0.0536
     19 C         141.9426  140.4145  156.9362 C.ar    1  UNL1        0.0052
     20 C         142.1569  141.5585  155.9900 C.ar    1  UNL1        0.0104
     21 N         143.9318  144.5015  154.0053 N.1     1  UNL1       -0.1908
     22 C         143.7175  143.3575  154.9516 C.1     1  UNL1        0.1004
     23 C         140.2914  140.6563  168.7434 C.2     1  UNL1        0.3078
     24 O         139.6558  139.5774  169.5693 O.2     1  UNL1       -0.2516
     25 N         140.5600  142.0029  169.3471 N.am    1  UNL1       -0.1708
     26 H         140.9771  142.7110  168.8050 H       1  UNL1        0.2545
     27 C         140.1930  142.2707  170.7766 C.2     1  UNL1        0.3751
     28 N         140.7072  141.3740  171.8635 N.pl3   1  UNL1       -0.1313
     29 N         139.3117  143.4352  171.1192 N.pl3   1  UNL1       -0.2906
     30 H         141.2856  140.6097  171.6387 H       1  UNL1        0.3060
     31 H         138.9742  144.0237  170.4058 H       1  UNL1        0.2545
     32 H         139.0708  143.6109  172.0574 H       1  UNL1        0.2545
     33 C         143.8833  139.5880  165.1438 C.3     1  UNL1        0.4183
     34 F         145.3123  139.3216  164.7736 F       1  UNL1       -0.1659
     35 F         143.6952  138.1346  165.4633 F       1  UNL1       -0.1659
     36 F         144.0715  141.0414  164.8243 F       1  UNL1       -0.1659
@<TRIPOS>BOND
     1    21    22    3
     2    22    15    1
     3    15    16   ar
     4    16    17   ar
     5    17    18   ar
     6    18     7    1
     7     7     8    2
     8     7     9   am
     9     9    10    1
    10    10    11    1
    11    11    12    1
    12    12     1    1
    13     1     2   ar
    14     2     3   ar
    15     3     4   ar
    16     4    23    1
    17    23    24    2
    18    23    25   am
    19    25    27    1
    20    27    28    2
    21    27    29    1
    22     4     5   ar
    23     5     6   ar
    24     6    33    1
    25    33    34    1
    26    33    35    1
    27    33    36    1
    28    12    13    1
    29    13    14    1
    30    18    19   ar
    31    19    20   ar
    32    20    15   ar
    33    14     9    1
    34     6     1   ar
    35    25    26    1
    36    28    30    1
    37    29    31    1
    38    29    32    1
@<TRIPOS>MOLECULE
*****
 36 38 0 0 0
SMALL
GASTEIGER

@<TRIPOS>ATOM
      1 C         141.9903  142.1642  164.2676 C.ar    1  UNL1       -0.0185
      2 C         140.7276  142.1494  165.0771 C.ar    1  UNL1       -0.0041
      3 C         140.7970  142.1710  166.5753 C.ar    1  UNL1        0.0057
      4 C         142.1290  142.2073  167.2640 C.ar    1  UNL1        0.0696
      5 C         143.3917  142.2221  166.4545 C.ar    1  UNL1        0.0095
      6 C         143.3223  142.2006  164.9563 C.ar    1  UNL1        0.0677
      7 C         141.7130  142.0782  158.2746 C.2     1  UNL1        0.2490
      8 O         142.0337  140.8179  157.5270 O.2     1  UNL1       -0.2699
      9 N         141.7823  142.0997  159.7728 N.am    1  UNL1       -0.2761
     10 C         141.4616  143.3599  160.5204 C.3     1  UNL1        0.0940
     11 C         141.5309  143.3814  162.0187 C.3     1  UNL1        0.0259
     12 C         141.9210  142.1427  162.7693 C.3     1  UNL1        0.0257
     13 C         142.2417  140.8825  162.0217 C.3     1  UNL1        0.0259
     14 C         142.1723  140.8609  160.5234 C.3     1  UNL1        0.0940
     15 C         140.5429  145.7943  156.0227 C.ar    1  UNL1        0.0685
     16 C         141.9764  145.5667  156.4009 C.ar    1  UNL1        0.0104
     17 C         142.3664  144.3280  157.1515 C.ar    1  UNL1        0.0052
     18 C         141.3229  143.3169  157.5239 C.ar    1  UNL1        0.0536
     19 C         139.8894  143.5445  157.1457 C.ar    1  UNL1        0.0052
     20 C         139.4994  144.7833  156.3951 C.ar    1  UNL1        0.0104
     21 N         139.7628  148.2718  154.5215 N.1     1  UNL1       -0.1908
     22 C         140.1528  147.0331  155.2721 C.1     1  UNL1        0.1004
     23 C         142.1983  142.2288  168.7623 C.2     1  UNL1        0.3078
     24 O         143.3702  142.8644  169.4498 O.2     1  UNL1       -0.2516
     25 N         141.0958  141.6148  169.5730 N.am    1  UNL1       -0.1708
     26 H         140.3266  141.1976  169.1218 H       1  UNL1        0.2545
     27 C         141.1652  141.6364  171.0712 C.2     1  UNL1        0.3751
     28 N         142.2342  140.8622  171.7837 N.pl3   1  UNL1       -0.1313
     29 N         140.1654  142.4321  171.8569 N.pl3   1  UNL1       -0.2906
     30 H         142.8904  140.3399  171.2681 H       1  UNL1        0.3060
     31 H         139.4637  142.9403  171.3893 H       1  UNL1        0.2545
     32 H         140.2109  142.4463  172.8403 H       1  UNL1        0.2545
     33 C         144.5851  142.2153  164.1467 C.3     1  UNL1        0.4183
     34 F         145.8477  142.2301  163.3371 F       1  UNL1       -0.1659
     35 F         144.7011  140.7278  164.3006 F       1  UNL1       -0.1659
     36 F         144.4690  143.7029  163.9927 F       1  UNL1       -0.1659
@<TRIPOS>BOND
     1    21    22    3
     2    22    15    1
     3    15    16   ar
     4    16    17   ar
     5    17    18   ar
     6    18     7    1
     7     7     8    2
     8     7     9   am
     9     9    10    1
    10    10    11    1
    11    11    12    1
    12    12     1    1
    13     1     2   ar
    14     2     3   ar
    15     3     4   ar
    16     4    23    1
    17    23    24    2
    18    23    25   am
    19    25    27    1
    20    27    28    2
    21    27    29    1
    22     4     5   ar
    23     5     6   ar
    24     6    33    1
    25    33    34    1
    26    33    35    1
    27    33    36    1
    28    12    13    1
    29    13    14    1
    30    18    19   ar
    31    19    20   ar
    32    20    15   ar
    33    14     9    1
    34     6     1   ar
    35    25    26    1
    36    28    30    1
    37    29    31    1
    38    29    32    1
@<TRIPOS>MOLECULE
*****
 36 38 0 0 0
SMALL
GASTEIGER

@<TRIPOS>ATOM
      1 C         140.9275  140.3485  164.2325 C.ar    1  UNL1       -0.0185
      2 C         142.1342  140.2534  165.1185 C.ar    1  UNL1       -0.0041
      3 C         141.9773  140.3176  166.6088 C.ar    1  UNL1        0.0057
      4 C         140.6137  140.4768  167.2133 C.ar    1  UNL1        0.0696
      5 C         139.4071  140.5718  166.3273 C.ar    1  UNL1        0.0095
      6 C         139.5640  140.5077  164.8370 C.ar    1  UNL1        0.0677
      7 C         141.5550  140.0919  158.2709 C.2     1  UNL1        0.2490
      8 O         141.7330  141.3543  157.4805 O.2     1  UNL1       -0.2699
      9 N         141.3982  140.1561  159.7613 N.am    1  UNL1       -0.2761
     10 C         141.2201  138.8937  160.5518 C.3     1  UNL1        0.0940
     11 C         141.0633  138.9579  162.0421 C.3     1  UNL1        0.0259
     12 C         141.0844  140.2844  162.7421 C.3     1  UNL1        0.0257
     13 C         141.2624  141.5467  161.9517 C.3     1  UNL1        0.0259
     14 C         141.4193  141.4826  160.4612 C.3     1  UNL1        0.0940
     15 C         141.4916  136.1124  156.1710 C.ar    1  UNL1        0.0685
     16 C         140.2499  136.9523  156.2242 C.ar    1  UNL1        0.0104
     17 C         140.2711  138.2788  156.9242 C.ar    1  UNL1        0.0052
     18 C         141.5339  138.7654  157.5710 C.ar    1  UNL1        0.0536
     19 C         142.7756  137.9256  157.5178 C.ar    1  UNL1        0.0052
     20 C         142.7544  136.5991  156.8178 C.ar    1  UNL1        0.0104
     21 N         141.4493  133.4594  154.7711 N.1     1  UNL1       -0.1908
     22 C         141.4704  134.7859  155.4711 C.1     1  UNL1        0.1004
     23 C         140.4568  140.5409  168.7037 C.2     1  UNL1        0.3078
     24 O         139.3301  139.8097  169.3714 O.2     1  UNL1       -0.2516
     25 N         141.4267  141.3361  169.5264 N.am    1  UNL1       -0.1708
     26 H         142.1662  141.8160  169.0882 H       1  UNL1        0.2545
     27 C         141.2698  141.4002  171.0168 C.2     1  UNL1        0.3751
     28 N         142.2460  140.6875  171.9050 N.pl3   1  UNL1       -0.1313
     29 N         140.1366  142.1770  171.6189 N.pl3   1  UNL1       -0.2906
     30 H         142.9897  140.1777  171.5099 H       1  UNL1        0.3060
     31 H         139.4959  142.6448  171.0359 H       1  UNL1        0.2545
     32 H         140.0336  142.2191  172.5971 H       1  UNL1        0.2545
     33 C         138.3573  140.6028  163.9510 C.3     1  UNL1        0.4183
     34 F         137.1507  140.6978  163.0650 F       1  UNL1       -0.1659
     35 F         138.2243  139.1088  163.9719 F       1  UNL1       -0.1659
     36 F         138.4903  142.0967  163.9300 F       1  UNL1       -0.1659
@<TRIPOS>BOND
     1    21    22    3
     2    22    15    1
     3    15    16   ar
     4    16    17   ar
     5    17    18   ar
     6    18     7    1
     7     7     8    2
     8     7     9   am
     9     9    10    1
    10    10    11    1
    11    11    12    1
    12    12     1    1
    13     1     2   ar
    14     2     3   ar
    15     3     4   ar
    16     4    23    1
    17    23    24    2
    18    23    25   am
    19    25    27    1
    20    27    28    2
    21    27    29    1
    22     4     5   ar
    23     5     6   ar
    24     6    33    1
    25    33    34    1
    26    33    35    1
    27    33    36    1
    28    12    13    1
    29    13    14    1
    30    18    19   ar
    31    19    20   ar
    32    20    15   ar
    33    14     9    1
    34     6     1   ar
    35    25    26    1
    36    28    30    1
    37    29    31    1
    38    29    32    1
@<TRIPOS>MOLECULE
*****
 36 38 0 0 0
SMALL
GASTEIGER

@<TRIPOS>ATOM
      1 C         141.4669  143.0279  164.6446 C.ar    1  UNL1       -0.0185
      2 C         142.6849  142.5195  165.3573 C.ar    1  UNL1       -0.0041
      3 C         142.6133  142.1815  166.8170 C.ar    1  UNL1        0.0057
      4 C         141.3238  142.3519  167.5639 C.ar    1  UNL1        0.0696
      5 C         140.1058  142.8603  166.8512 C.ar    1  UNL1        0.0095
      6 C         140.1774  143.1983  165.3916 C.ar    1  UNL1        0.0677
      7 C         141.7531  144.3800  158.8059 C.2     1  UNL1        0.2490
      8 O         141.7969  145.8144  158.3696 O.2     1  UNL1       -0.2699
      9 N         141.6816  144.0420  160.2656 N.am    1  UNL1       -0.2761
     10 C         141.6378  142.6076  160.7020 C.3     1  UNL1        0.0940
     11 C         141.5662  142.2696  162.1617 C.3     1  UNL1        0.0259
     12 C         141.5385  143.3660  163.1849 C.3     1  UNL1        0.0257
     13 C         141.5823  144.8004  162.7486 C.3     1  UNL1        0.0259
     14 C         141.6538  145.1385  161.2888 C.3     1  UNL1        0.0940
     15 C         141.8363  141.0907  155.7362 C.ar    1  UNL1        0.0685
     16 C         140.5245  141.6530  156.1975 C.ar    1  UNL1        0.0104
     17 C         140.4968  142.7495  157.2208 C.ar    1  UNL1        0.0052
     18 C         141.7809  143.2836  157.7827 C.ar    1  UNL1        0.0536
     19 C         143.0927  142.7213  157.3213 C.ar    1  UNL1        0.0052
     20 C         143.1204  141.6249  156.2981 C.ar    1  UNL1        0.0104
     21 N         141.8918  138.8979  153.6896 N.1     1  UNL1       -0.1908
     22 C         141.8641  139.9943  154.7129 C.1     1  UNL1        0.1004
     23 C         141.2522  142.0139  169.0236 C.2     1  UNL1        0.3078
     24 O         141.3656  143.1004  170.0515 O.2     1  UNL1       -0.2516
     25 N         141.0673  140.5893  169.4554 N.am    1  UNL1       -0.1708
     26 H         140.9929  139.8762  168.7807 H       1  UNL1        0.2545
     27 C         140.9958  140.2513  170.9150 C.2     1  UNL1        0.3751
     28 N         142.0821  140.7058  171.8442 N.pl3   1  UNL1       -0.1313
     29 N         139.8379  139.4589  171.4455 N.pl3   1  UNL1       -0.2906
     30 H         142.8420  141.2259  171.4961 H       1  UNL1        0.3060
     31 H         139.1249  139.1606  170.8357 H       1  UNL1        0.2545
     32 H         139.7910  139.2370  172.4036 H       1  UNL1        0.2545
     33 C         138.9593  143.7068  164.6788 C.3     1  UNL1        0.4183
     34 F         137.7413  144.2152  163.9661 F       1  UNL1       -0.1659
     35 F         138.6463  142.3135  164.2200 F       1  UNL1       -0.1659
     36 F         139.2724  145.1001  165.1377 F       1  UNL1       -0.1659
@<TRIPOS>BOND
     1    21    22    3
     2    22    15    1
     3    15    16   ar
     4    16    17   ar
     5    17    18   ar
     6    18     7    1
     7     7     8    2
     8     7     9   am
     9     9    10    1
    10    10    11    1
    11    11    12    1
    12    12     1    1
    13     1     2   ar
    14     2     3   ar
    15     3     4   ar
    16     4    23    1
    17    23    24    2
    18    23    25   am
    19    25    27    1
    20    27    28    2
    21    27    29    1
    22     4     5   ar
    23     5     6   ar
    24     6    33    1
    25    33    34    1
    26    33    35    1
    27    33    36    1
    28    12    13    1
    29    13    14    1
    30    18    19   ar
    31    19    20   ar
    32    20    15   ar
    33    14     9    1
    34     6     1   ar
    35    25    26    1
    36    28    30    1
    37    29    31    1
    38    29    32    1
