@<TRIPOS>MOLECULE
*****
 36 40 0 0 0
SMALL
GASTEIGER

@<TRIPOS>ATOM
      1 N         138.0679  140.0684  162.4262 N.3     1  UNL1       -0.2689
      2 C         137.6996  140.7782  163.6953 C.3     1  UNL1        0.0737
      3 C         137.5889  142.2739  163.7131 C.3     1  UNL1        0.0356
      4 C         137.8466  143.0600  162.4619 C.3     1  UNL1        0.0843
      5 C         138.2149  142.3502  161.1927 C.3     1  UNL1        0.1407
      6 O         138.4726  143.1364  159.9414 O.3     1  UNL1       -0.3817
      7 C         138.3255  140.8545  161.1749 C.3     1  UNL1        0.1031
      8 H         138.3595  144.0822  160.1247 H       1  UNL1        0.2105
      9 N         137.7360  144.5558  162.4796 N.3     1  UNL1       -0.2915
     10 H         137.1073  144.7955  163.2463 H       1  UNL1        0.1236
     11 C         138.9663  145.3969  162.6495 C.3     1  UNL1        0.1153
     12 C         140.3241  144.7649  162.5667 C.ar    1  UNL1        0.0782
     13 C         141.0045  144.2831  163.8137 C.ar    1  UNL1        0.0562
     14 C         142.3623  143.6511  163.7309 C.ar    1  UNL1        0.1752
     15 C         143.0398  143.5009  162.4010 C.ar    1  UNL1        0.1914
     16 C         142.3595  143.9828  161.1540 C.ar    1  UNL1        0.1384
     17 N         141.0016  144.6148  161.2369 N.ar    1  UNL1       -0.2434
     18 O         144.3977  142.8690  162.3182 O.3     1  UNL1       -0.4668
     19 C         145.0780  142.3872  163.5652 C.3     1  UNL1        0.2527
     20 C         144.4005  142.5373  164.8950 C.3     1  UNL1        0.2526
     21 O         143.0427  143.1693  164.9779 O.3     1  UNL1       -0.4683
     22 C         138.1785  138.5726  162.4084 C.3     1  UNL1        0.0970
     23 C         138.9533  137.8650  163.4803 C.3     1  UNL1        0.1264
     24 C         139.9509  139.6134  167.5050 C.ar    1  UNL1        0.1403
     25 C         141.3581  140.0313  167.8132 C.ar    1  UNL1        0.0385
     26 C         142.4328  139.8664  166.7799 C.ar    1  UNL1        0.0237
     27 C         142.1003  139.2837  165.4384 C.ar    1  UNL1        0.0975
     28 N         143.1750  139.1188  164.4050 N.ar    1  UNL1       -0.2374
     29 C         142.8425  138.5361  163.0635 C.ar    1  UNL1        0.1594
     30 C         141.4353  138.1181  162.7552 C.ar    1  UNL1        0.2803
     31 O         141.1028  137.5354  161.4137 O.2     1  UNL1       -0.2653
     32 N         140.3605  138.2830  163.7885 N.ar    1  UNL1       -0.2913
     33 C         140.6931  138.8658  165.1301 C.ar    1  UNL1        0.0832
     34 C         139.6184  139.0306  166.1635 C.ar    1  UNL1        0.0557
     35 C         139.1751  140.4898  169.8245 C.3     1  UNL1        0.2525
     36 O         138.8761  139.7782  168.5384 O.3     1  UNL1       -0.4714
@<TRIPOS>BOND
     1    35    36    1
     2    36    24    1
     3    24    25   ar
     4    25    26   ar
     5    26    27   ar
     6    27    28   ar
     7    28    29   ar
     8    29    30   ar
     9    30    31    2
    10    30    32   ar
    11    32    23    1
    12    23    22    1
    13    22     1    1
    14     1     2    1
    15     2     3    1
    16     3     4    1
    17     4     9    1
    18     9    11    1
    19    11    12    1
    20    12    13   ar
    21    13    14   ar
    22    14    15   ar
    23    15    16   ar
    24    16    17   ar
    25    15    18    1
    26    18    19    1
    27    19    20    1
    28    20    21    1
    29     4     5    1
    30     5     6    1
    31     5     7    1
    32    32    33   ar
    33    33    34   ar
    34    34    24   ar
    35    33    27   ar
    36     7     1    1
    37    17    12   ar
    38    21    14    1
    39     9    10    1
    40     6     8    1
@<TRIPOS>MOLECULE
*****
 36 40 0 0 0
SMALL
GASTEIGER

@<TRIPOS>ATOM
      1 N         142.9164  144.1062  162.4716 N.3     1  UNL1       -0.2689
      2 C         142.3255  144.6971  163.7173 C.3     1  UNL1        0.0737
      3 C         140.8751  145.0776  163.7519 C.3     1  UNL1        0.0356
      4 C         140.0154  144.8673  162.5409 C.3     1  UNL1        0.0843
      5 C         140.6063  144.2765  161.2951 C.3     1  UNL1        0.1407
      6 O         139.7466  144.0662  160.0840 O.3     1  UNL1       -0.3817
      7 C         142.0568  143.8959  161.2605 C.3     1  UNL1        0.1031
      8 H         138.8427  144.3628  160.2736 H       1  UNL1        0.2105
      9 N         138.5649  145.2479  162.5754 N.3     1  UNL1       -0.2915
     10 H         138.2907  145.4509  161.6142 H       1  UNL1        0.1236
     11 C         137.5503  144.2874  163.1214 C.3     1  UNL1        0.1153
     12 C         137.7588  142.8097  162.9697 C.ar    1  UNL1        0.0782
     13 C         138.0157  141.9605  164.1792 C.ar    1  UNL1        0.0562
     14 C         138.2242  140.4829  164.0276 C.ar    1  UNL1        0.1752
     15 C         138.1759  139.8544  162.6664 C.ar    1  UNL1        0.1914
     16 C         137.9190  140.7036  161.4569 C.ar    1  UNL1        0.1384
     17 N         137.7104  142.1813  161.6086 N.ar    1  UNL1       -0.2434
     18 O         138.3844  138.3767  162.5148 O.3     1  UNL1       -0.4668
     19 C         138.6413  137.5275  163.7243 C.3     1  UNL1        0.2527
     20 C         138.6897  138.1559  165.0854 C.3     1  UNL1        0.2526
     21 O         138.4811  139.6337  165.2371 O.3     1  UNL1       -0.4683
     22 C         144.3670  143.7257  162.4370 C.3     1  UNL1        0.0970
     23 C         144.8372  142.4965  163.1567 C.3     1  UNL1        0.1264
     24 C         143.0119  141.8563  167.2197 C.ar    1  UNL1        0.1403
     25 C         142.0681  140.7126  167.4462 C.ar    1  UNL1        0.0385
     26 C         141.7328  139.7824  166.3183 C.ar    1  UNL1        0.0237
     27 C         142.3412  139.9957  164.9640 C.ar    1  UNL1        0.0975
     28 N         142.0059  139.0654  163.8361 N.ar    1  UNL1       -0.2374
     29 C         142.6143  139.2788  162.4818 C.ar    1  UNL1        0.1594
     30 C         143.5581  140.4225  162.2553 C.ar    1  UNL1        0.2803
     31 O         144.1665  140.6359  160.9009 O.2     1  UNL1       -0.2653
     32 N         143.8934  141.3528  163.3831 N.ar    1  UNL1       -0.2913
     33 C         143.2850  141.1394  164.7375 C.ar    1  UNL1        0.0832
     34 C         143.6203  142.0697  165.8654 C.ar    1  UNL1        0.0557
     35 C         143.8160  142.2344  169.6611 C.3     1  UNL1        0.2525
     36 O         143.3472  142.7866  168.3476 O.3     1  UNL1       -0.4714
@<TRIPOS>BOND
     1    35    36    1
     2    36    24    1
     3    24    25   ar
     4    25    26   ar
     5    26    27   ar
     6    27    28   ar
     7    28    29   ar
     8    29    30   ar
     9    30    31    2
    10    30    32   ar
    11    32    23    1
    12    23    22    1
    13    22     1    1
    14     1     2    1
    15     2     3    1
    16     3     4    1
    17     4     9    1
    18     9    11    1
    19    11    12    1
    20    12    13   ar
    21    13    14   ar
    22    14    15   ar
    23    15    16   ar
    24    16    17   ar
    25    15    18    1
    26    18    19    1
    27    19    20    1
    28    20    21    1
    29     4     5    1
    30     5     6    1
    31     5     7    1
    32    32    33   ar
    33    33    34   ar
    34    34    24   ar
    35    33    27   ar
    36     7     1    1
    37    17    12   ar
    38    21    14    1
    39     9    10    1
    40     6     8    1
@<TRIPOS>MOLECULE
*****
 36 40 0 0 0
SMALL
GASTEIGER

@<TRIPOS>ATOM
      1 N         141.7297  137.9879  164.0731 N.3     1  UNL1       -0.2689
      2 C         142.3270  138.5096  165.3463 C.3     1  UNL1        0.0737
      3 C         143.6425  139.2297  165.3177 C.3     1  UNL1        0.0356
      4 C         144.3607  139.4280  164.0159 C.3     1  UNL1        0.0843
      5 C         143.7634  138.9063  162.7427 C.3     1  UNL1        0.1407
      6 O         144.4817  139.1046  161.4408 O.3     1  UNL1       -0.3817
      7 C         142.4479  138.1862  162.7713 C.3     1  UNL1        0.1031
      8 H         145.3099  139.5845  161.5983 H       1  UNL1        0.2105
      9 N         145.6763  140.1481  163.9872 N.3     1  UNL1       -0.2915
     10 H         146.1957  139.7809  163.1898 H       1  UNL1        0.1236
     11 C         145.7105  141.6435  163.8748 C.3     1  UNL1        0.1153
     12 C         144.7608  142.3481  162.9520 C.ar    1  UNL1        0.0782
     13 C         143.6913  143.2378  163.5128 C.ar    1  UNL1        0.0562
     14 C         142.7417  143.9424  162.5901 C.ar    1  UNL1        0.1752
     15 C         142.8615  143.7574  161.1063 C.ar    1  UNL1        0.1914
     16 C         143.9310  142.8676  160.5454 C.ar    1  UNL1        0.1384
     17 N         144.8807  142.1630  161.4683 N.ar    1  UNL1       -0.2434
     18 O         141.9118  144.4620  160.1835 O.3     1  UNL1       -0.4668
     19 C         140.8423  145.3517  160.7444 C.3     1  UNL1        0.2527
     20 C         140.7225  145.5368  162.2281 C.3     1  UNL1        0.2526
     21 O         141.6722  144.8322  163.1509 O.3     1  UNL1       -0.4683
     22 C         140.4141  137.2678  164.1018 C.3     1  UNL1        0.0970
     23 C         139.1731  137.9900  164.5358 C.3     1  UNL1        0.1264
     24 C         140.0751  141.9132  166.5470 C.ar    1  UNL1        0.1403
     25 C         139.6871  143.2020  165.8850 C.ar    1  UNL1        0.0385
     26 C         138.9985  143.1832  164.5526 C.ar    1  UNL1        0.0237
     27 C         138.6978  141.8755  163.8822 C.ar    1  UNL1        0.0975
     28 N         138.0091  141.8566  162.5497 N.ar    1  UNL1       -0.2374
     29 C         137.7084  140.5489  161.8793 C.ar    1  UNL1        0.1594
     30 C         138.0964  139.2600  162.5413 C.ar    1  UNL1        0.2803
     31 O         137.7958  137.9523  161.8709 O.2     1  UNL1       -0.2653
     32 N         138.7851  139.2789  163.8738 N.ar    1  UNL1       -0.2913
     33 C         139.0858  140.5866  164.5442 C.ar    1  UNL1        0.0832
     34 C         139.7744  140.6055  165.8766 C.ar    1  UNL1        0.0557
     35 C         140.5067  143.0544  168.8408 C.3     1  UNL1        0.2525
     36 O         140.7638  141.9320  167.8795 O.3     1  UNL1       -0.4714
@<TRIPOS>BOND
     1    35    36    1
     2    36    24    1
     3    24    25   ar
     4    25    26   ar
     5    26    27   ar
     6    27    28   ar
     7    28    29   ar
     8    29    30   ar
     9    30    31    2
    10    30    32   ar
    11    32    23    1
    12    23    22    1
    13    22     1    1
    14     1     2    1
    15     2     3    1
    16     3     4    1
    17     4     9    1
    18     9    11    1
    19    11    12    1
    20    12    13   ar
    21    13    14   ar
    22    14    15   ar
    23    15    16   ar
    24    16    17   ar
    25    15    18    1
    26    18    19    1
    27    19    20    1
    28    20    21    1
    29     4     5    1
    30     5     6    1
    31     5     7    1
    32    32    33   ar
    33    33    34   ar
    34    34    24   ar
    35    33    27   ar
    36     7     1    1
    37    17    12   ar
    38    21    14    1
    39     9    10    1
    40     6     8    1
@<TRIPOS>MOLECULE
*****
 36 40 0 0 0
SMALL
GASTEIGER

@<TRIPOS>ATOM
      1 N         144.4302  140.0704  163.4383 N.3     1  UNL1       -0.2689
      2 C         143.7916  139.2651  164.5310 C.3     1  UNL1        0.0737
      3 C         142.6933  138.2969  164.2052 C.3     1  UNL1        0.0356
      4 C         142.2335  138.1340  162.7867 C.3     1  UNL1        0.0843
      5 C         142.8721  138.9392  161.6941 C.3     1  UNL1        0.1407
      6 O         142.4122  138.7762  160.2756 O.3     1  UNL1       -0.3817
      7 C         143.9704  139.9074  162.0199 C.3     1  UNL1        0.1031
      8 H         141.7017  138.1168  160.2398 H       1  UNL1        0.2105
      9 N         141.1351  137.1658  162.4608 N.3     1  UNL1       -0.2915
     10 H         141.2674  136.3557  163.0663 H       1  UNL1        0.1236
     11 C         139.7012  137.5828  162.6027 C.3     1  UNL1        0.1153
     12 C         139.3143  139.0182  162.4032 C.ar    1  UNL1        0.0782
     13 C         138.7782  139.8174  163.5537 C.ar    1  UNL1        0.0562
     14 C         138.3913  141.2528  163.3542 C.ar    1  UNL1        0.1752
     15 C         138.5406  141.8891  162.0040 C.ar    1  UNL1        0.1914
     16 C         139.0767  141.0899  160.8534 C.ar    1  UNL1        0.1384
     17 N         139.4636  139.6544  161.0530 N.ar    1  UNL1       -0.2434
     18 O         138.1537  143.3245  161.8045 O.3     1  UNL1       -0.4668
     19 C         137.6175  144.1237  162.9551 C.3     1  UNL1        0.2527
     20 C         137.4682  143.4874  164.3052 C.3     1  UNL1        0.2526
     21 O         137.8551  142.0519  164.5048 O.3     1  UNL1       -0.4683
     22 C         145.5286  141.0386  163.7642 C.3     1  UNL1        0.0970
     23 C         145.1940  142.4421  164.1741 C.3     1  UNL1        0.1264
     24 C         142.3825  142.0388  167.6645 C.ar    1  UNL1        0.1403
     25 C         140.9720  142.5367  167.5528 C.ar    1  UNL1        0.0385
     26 C         140.4986  143.1690  166.2777 C.ar    1  UNL1        0.0237
     27 C         141.4357  143.3035  165.1142 C.ar    1  UNL1        0.0975
     28 N         140.9624  143.9358  163.8390 N.ar    1  UNL1       -0.2374
     29 C         141.8995  144.0703  162.6756 C.ar    1  UNL1        0.1594
     30 C         143.3101  143.5724  162.7873 C.ar    1  UNL1        0.2803
     31 O         144.2472  143.7068  161.6238 O.2     1  UNL1       -0.2653
     32 N         143.7835  142.9400  164.0624 N.ar    1  UNL1       -0.2913
     33 C         142.8463  142.8056  165.2259 C.ar    1  UNL1        0.0832
     34 C         143.3197  142.1732  166.5011 C.ar    1  UNL1        0.0557
     35 C         143.7201  142.1847  169.8871 C.3     1  UNL1        0.2525
     36 O         142.8559  141.4064  168.9397 O.3     1  UNL1       -0.4714
@<TRIPOS>BOND
     1    35    36    1
     2    36    24    1
     3    24    25   ar
     4    25    26   ar
     5    26    27   ar
     6    27    28   ar
     7    28    29   ar
     8    29    30   ar
     9    30    31    2
    10    30    32   ar
    11    32    23    1
    12    23    22    1
    13    22     1    1
    14     1     2    1
    15     2     3    1
    16     3     4    1
    17     4     9    1
    18     9    11    1
    19    11    12    1
    20    12    13   ar
    21    13    14   ar
    22    14    15   ar
    23    15    16   ar
    24    16    17   ar
    25    15    18    1
    26    18    19    1
    27    19    20    1
    28    20    21    1
    29     4     5    1
    30     5     6    1
    31     5     7    1
    32    32    33   ar
    33    33    34   ar
    34    34    24   ar
    35    33    27   ar
    36     7     1    1
    37    17    12   ar
    38    21    14    1
    39     9    10    1
    40     6     8    1
@<TRIPOS>MOLECULE
*****
 36 40 0 0 0
SMALL
GASTEIGER

@<TRIPOS>ATOM
      1 N         138.9590  139.5729  161.3297 N.3     1  UNL1       -0.2689
      2 C         139.8730  139.9136  160.1902 C.3     1  UNL1        0.0737
      3 C         141.1807  139.1950  160.0371 C.3     1  UNL1        0.0356
      4 C         141.5744  138.1357  161.0234 C.3     1  UNL1        0.0843
      5 C         140.6603  137.7950  162.1629 C.3     1  UNL1        0.1407
      6 O         141.0540  136.7356  163.1492 O.3     1  UNL1       -0.3817
      7 C         139.3526  138.5136  162.3160 C.3     1  UNL1        0.1031
      8 H         141.9210  136.3743  162.9068 H       1  UNL1        0.2105
      9 N         142.8821  137.4171  160.8702 N.3     1  UNL1       -0.2915
     10 H         143.0422  137.3071  159.8689 H       1  UNL1        0.1236
     11 C         144.1346  138.0079  161.4467 C.3     1  UNL1        0.1153
     12 C         144.0566  139.2244  162.3207 C.ar    1  UNL1        0.0782
     13 C         144.2043  140.5907  161.7195 C.ar    1  UNL1        0.0562
     14 C         144.1264  141.8072  162.5935 C.ar    1  UNL1        0.1752
     15 C         143.9008  141.6574  164.0689 C.ar    1  UNL1        0.1914
     16 C         143.7531  140.2912  164.6702 C.ar    1  UNL1        0.1384
     17 N         143.8310  139.0746  163.7961 N.ar    1  UNL1       -0.2434
     18 O         143.8228  142.8739  164.9430 O.3     1  UNL1       -0.4668
     19 C         143.9705  144.2402  164.3417 C.3     1  UNL1        0.2527
     20 C         144.1961  144.3900  162.8664 C.3     1  UNL1        0.2526
     21 O         144.2741  143.1734  161.9922 O.3     1  UNL1       -0.4683
     22 C         137.6512  140.2916  161.4828 C.3     1  UNL1        0.0970
     23 C         137.3820  141.1047  162.7142 C.3     1  UNL1        0.1264
     24 C         139.1805  140.2530  166.7503 C.ar    1  UNL1        0.1403
     25 C         140.2455  141.1537  167.3020 C.ar    1  UNL1        0.0385
     26 C         140.7110  142.3383  166.5083 C.ar    1  UNL1        0.0237
     27 C         140.1116  142.6222  165.1630 C.ar    1  UNL1        0.0975
     28 N         140.5771  143.8069  164.3693 N.ar    1  UNL1       -0.2374
     29 C         139.9776  144.0908  163.0240 C.ar    1  UNL1        0.1594
     30 C         138.9125  143.1901  162.4723 C.ar    1  UNL1        0.2803
     31 O         138.3131  143.4740  161.1269 O.2     1  UNL1       -0.2653
     32 N         138.4470  142.0054  163.2659 N.ar    1  UNL1       -0.2913
     33 C         139.0465  141.7215  164.6113 C.ar    1  UNL1        0.0832
     34 C         138.5810  140.5369  165.4050 C.ar    1  UNL1        0.0557
     35 C         137.5241  138.2798  167.0859 C.3     1  UNL1        0.2525
     36 O         138.7150  139.0683  167.5440 O.3     1  UNL1       -0.4714
@<TRIPOS>BOND
     1    35    36    1
     2    36    24    1
     3    24    25   ar
     4    25    26   ar
     5    26    27   ar
     6    27    28   ar
     7    28    29   ar
     8    29    30   ar
     9    30    31    2
    10    30    32   ar
    11    32    23    1
    12    23    22    1
    13    22     1    1
    14     1     2    1
    15     2     3    1
    16     3     4    1
    17     4     9    1
    18     9    11    1
    19    11    12    1
    20    12    13   ar
    21    13    14   ar
    22    14    15   ar
    23    15    16   ar
    24    16    17   ar
    25    15    18    1
    26    18    19    1
    27    19    20    1
    28    20    21    1
    29     4     5    1
    30     5     6    1
    31     5     7    1
    32    32    33   ar
    33    33    34   ar
    34    34    24   ar
    35    33    27   ar
    36     7     1    1
    37    17    12   ar
    38    21    14    1
    39     9    10    1
    40     6     8    1
@<TRIPOS>MOLECULE
*****
 36 40 0 0 0
SMALL
GASTEIGER

@<TRIPOS>ATOM
      1 N         143.0039  144.0081  162.1875 N.3     1  UNL1       -0.2689
      2 C         142.4747  144.8964  163.2742 C.3     1  UNL1        0.0737
      3 C         141.0238  145.2763  163.2924 C.3     1  UNL1        0.0356
      4 C         140.1020  144.7679  162.2238 C.3     1  UNL1        0.0843
      5 C         140.6312  143.8796  161.1372 C.3     1  UNL1        0.1407
      6 O         139.7093  143.3711  160.0686 O.3     1  UNL1       -0.3817
      7 C         142.0821  143.4997  161.1190 C.3     1  UNL1        0.1031
      8 H         138.8136  143.7080  160.2272 H       1  UNL1        0.2105
      9 N         138.6510  145.1478  162.2420 N.3     1  UNL1       -0.2915
     10 H         138.3272  145.1199  161.2751 H       1  UNL1        0.1236
     11 C         137.6752  144.3436  163.0489 C.3     1  UNL1        0.1153
     12 C         137.8601  142.8617  163.1897 C.ar    1  UNL1        0.0782
     13 C         138.1884  142.2707  164.5287 C.ar    1  UNL1        0.0562
     14 C         138.3733  140.7889  164.6695 C.ar    1  UNL1        0.1752
     15 C         138.2299  139.8979  163.4713 C.ar    1  UNL1        0.1914
     16 C         137.9015  140.4889  162.1323 C.ar    1  UNL1        0.1384
     17 N         137.7167  141.9708  161.9915 N.ar    1  UNL1       -0.2434
     18 O         138.4147  138.4161  163.6122 O.3     1  UNL1       -0.4668
     19 C         138.7431  137.8251  164.9512 C.3     1  UNL1        0.2527
     20 C         138.8865  138.7160  166.1494 C.3     1  UNL1        0.2526
     21 O         138.7016  140.1979  166.0086 O.3     1  UNL1       -0.4683
     22 C         144.4549  143.6282  162.1694 C.3     1  UNL1        0.0970
     23 C         144.9405  142.4818  163.0059 C.3     1  UNL1        0.1264
     24 C         143.3019  138.9687  160.7204 C.ar    1  UNL1        0.1403
     25 C         142.3158  138.0447  161.3713 C.ar    1  UNL1        0.0385
     26 C         141.8759  138.2915  162.7839 C.ar    1  UNL1        0.0237
     27 C         142.4221  139.4625  163.5457 C.ar    1  UNL1        0.0975
     28 N         141.9822  139.7094  164.9583 N.ar    1  UNL1       -0.2374
     29 C         142.5284  140.8804  165.7202 C.ar    1  UNL1        0.1594
     30 C         143.5145  141.8046  165.0694 C.ar    1  UNL1        0.2803
     31 O         144.0607  142.9755  165.8312 O.2     1  UNL1       -0.2653
     32 N         143.9544  141.5577  163.6567 N.ar    1  UNL1       -0.2913
     33 C         143.4082  140.3866  162.8949 C.ar    1  UNL1        0.0832
     34 C         143.8481  140.1397  161.4823 C.ar    1  UNL1        0.0557
     35 C         142.7213  138.4719  158.2373 C.3     1  UNL1        0.2525
     36 O         143.7418  138.7219  159.3078 O.3     1  UNL1       -0.4714
@<TRIPOS>BOND
     1    35    36    1
     2    36    24    1
     3    24    25   ar
     4    25    26   ar
     5    26    27   ar
     6    27    28   ar
     7    28    29   ar
     8    29    30   ar
     9    30    31    2
    10    30    32   ar
    11    32    23    1
    12    23    22    1
    13    22     1    1
    14     1     2    1
    15     2     3    1
    16     3     4    1
    17     4     9    1
    18     9    11    1
    19    11    12    1
    20    12    13   ar
    21    13    14   ar
    22    14    15   ar
    23    15    16   ar
    24    16    17   ar
    25    15    18    1
    26    18    19    1
    27    19    20    1
    28    20    21    1
    29     4     5    1
    30     5     6    1
    31     5     7    1
    32    32    33   ar
    33    33    34   ar
    34    34    24   ar
    35    33    27   ar
    36     7     1    1
    37    17    12   ar
    38    21    14    1
    39     9    10    1
    40     6     8    1
@<TRIPOS>MOLECULE
*****
 36 40 0 0 0
SMALL
GASTEIGER

@<TRIPOS>ATOM
      1 N         140.1358  143.6525  164.5883 N.3     1  UNL1       -0.2689
      2 C         140.8453  142.8264  165.6199 C.3     1  UNL1        0.0737
      3 C         142.3437  142.7588  165.6256 C.3     1  UNL1        0.0356
      4 C         143.1326  143.5173  164.5998 C.3     1  UNL1        0.0843
      5 C         142.4231  144.3433  163.5682 C.3     1  UNL1        0.1407
      6 O         143.2121  145.1018  162.5424 O.3     1  UNL1       -0.3817
      7 C         140.9247  144.4109  163.5625 C.3     1  UNL1        0.1031
      8 H         144.1593  144.9507  162.6864 H       1  UNL1        0.2105
      9 N         144.6312  143.4497  164.6056 N.3     1  UNL1       -0.2915
     10 H         144.9247  143.5055  165.5808 H       1  UNL1        0.1236
     11 C         145.3307  142.2640  164.0099 C.3     1  UNL1        0.1153
     12 C         144.8046  141.6360  162.7534 C.ar    1  UNL1        0.0782
     13 C         144.3983  140.1921  162.7499 C.ar    1  UNL1        0.0562
     14 C         143.8722  139.5641  161.4934 C.ar    1  UNL1        0.1752
     15 C         143.7524  140.3800  160.2404 C.ar    1  UNL1        0.1914
     16 C         144.1587  141.8239  160.2439 C.ar    1  UNL1        0.1384
     17 N         144.6848  142.4519  161.5005 N.ar    1  UNL1       -0.2434
     18 O         143.2263  139.7520  158.9839 O.3     1  UNL1       -0.4668
     19 C         142.8200  138.3081  158.9804 C.3     1  UNL1        0.2527
     20 C         142.9398  137.4922  160.2333 C.3     1  UNL1        0.2526
     21 O         143.4659  138.1202  161.4899 O.3     1  UNL1       -0.4683
     22 C         138.6372  143.7200  164.5825 C.3     1  UNL1        0.0970
     23 C         137.8560  142.9564  163.5546 C.3     1  UNL1        0.1264
     24 C         138.3547  138.9967  165.6336 C.ar    1  UNL1        0.1403
     25 C         138.9898  137.8454  164.9117 C.ar    1  UNL1        0.0385
     26 C         139.4587  138.0140  163.4969 C.ar    1  UNL1        0.0237
     27 C         139.2924  139.3338  162.8039 C.ar    1  UNL1        0.0975
     28 N         139.7613  139.5024  161.3891 N.ar    1  UNL1       -0.2374
     29 C         139.5951  140.8223  160.6961 C.ar    1  UNL1        0.1594
     30 C         138.9600  141.9737  161.4179 C.ar    1  UNL1        0.2803
     31 O         138.7937  143.2935  160.7250 O.2     1  UNL1       -0.2653
     32 N         138.4911  141.8051  162.8328 N.ar    1  UNL1       -0.2913
     33 C         138.6574  140.4851  163.5258 C.ar    1  UNL1        0.0832
     34 C         138.1885  140.3166  164.9406 C.ar    1  UNL1        0.0557
     35 C         137.0090  137.6676  167.4147 C.3     1  UNL1        0.2525
     36 O         137.8859  138.8281  167.0484 O.3     1  UNL1       -0.4714
@<TRIPOS>BOND
     1    35    36    1
     2    36    24    1
     3    24    25   ar
     4    25    26   ar
     5    26    27   ar
     6    27    28   ar
     7    28    29   ar
     8    29    30   ar
     9    30    31    2
    10    30    32   ar
    11    32    23    1
    12    23    22    1
    13    22     1    1
    14     1     2    1
    15     2     3    1
    16     3     4    1
    17     4     9    1
    18     9    11    1
    19    11    12    1
    20    12    13   ar
    21    13    14   ar
    22    14    15   ar
    23    15    16   ar
    24    16    17   ar
    25    15    18    1
    26    18    19    1
    27    19    20    1
    28    20    21    1
    29     4     5    1
    30     5     6    1
    31     5     7    1
    32    32    33   ar
    33    33    34   ar
    34    34    24   ar
    35    33    27   ar
    36     7     1    1
    37    17    12   ar
    38    21    14    1
    39     9    10    1
    40     6     8    1
@<TRIPOS>MOLECULE
*****
 36 40 0 0 0
SMALL
GASTEIGER

@<TRIPOS>ATOM
      1 N         143.2746  143.6585  163.4918 N.3     1  UNL1       -0.2689
      2 C         142.6389  143.0900  164.7258 C.3     1  UNL1        0.0737
      3 C         141.2770  143.5540  165.1496 C.3     1  UNL1        0.0356
      4 C         140.5507  144.5866  164.3396 C.3     1  UNL1        0.0843
      5 C         141.1864  145.1552  163.1056 C.3     1  UNL1        0.1407
      6 O         140.4601  146.1878  162.2955 O.3     1  UNL1       -0.3817
      7 C         142.5484  144.6911  162.6817 C.3     1  UNL1        0.1031
      8 H         139.6004  146.3736  162.7045 H       1  UNL1        0.2105
      9 N         139.1887  145.0507  164.7635 N.3     1  UNL1       -0.2915
     10 H         139.0887  146.0105  164.4330 H       1  UNL1        0.1236
     11 C         137.9679  144.3069  164.3092 C.3     1  UNL1        0.1153
     12 C         138.0904  143.2207  163.2820 C.ar    1  UNL1        0.0782
     13 C         138.0603  141.7818  163.7047 C.ar    1  UNL1        0.0562
     14 C         138.1827  140.6956  162.6775 C.ar    1  UNL1        0.1752
     15 C         138.3354  141.0483  161.2276 C.ar    1  UNL1        0.1914
     16 C         138.3655  142.4872  160.8048 C.ar    1  UNL1        0.1384
     17 N         138.2430  143.5734  161.8321 N.ar    1  UNL1       -0.2434
     18 O         138.4579  139.9621  160.2004 O.3     1  UNL1       -0.4668
     19 C         138.4277  138.5232  160.6231 C.3     1  UNL1        0.2527
     20 C         138.2751  138.1705  162.0730 C.3     1  UNL1        0.2526
     21 O         138.1526  139.2567  163.1003 O.3     1  UNL1       -0.4683
     22 C         144.6366  143.1944  163.0679 C.3     1  UNL1        0.0970
     23 C         144.9360  141.7271  162.9825 C.3     1  UNL1        0.1264
     24 C         143.0378  138.6601  165.6732 C.ar    1  UNL1        0.1403
     25 C         142.0095  137.7155  165.1254 C.ar    1  UNL1        0.0385
     26 C         141.6139  137.7932  163.6806 C.ar    1  UNL1        0.0237
     27 C         142.2466  138.8155  162.7837 C.ar    1  UNL1        0.0975
     28 N         141.8510  138.8932  161.3389 N.ar    1  UNL1       -0.2374
     29 C         142.4837  139.9155  160.4419 C.ar    1  UNL1        0.1594
     30 C         143.5121  140.8602  160.9898 C.ar    1  UNL1        0.2803
     31 O         144.1448  141.8825  160.0929 O.2     1  UNL1       -0.2653
     32 N         143.9077  140.7825  162.4346 N.ar    1  UNL1       -0.2913
     33 C         143.2749  139.7601  163.3315 C.ar    1  UNL1        0.0832
     34 C         143.6706  139.6824  164.7763 C.ar    1  UNL1        0.0557
     35 C         142.6875  139.3828  168.1440 C.3     1  UNL1        0.2525
     36 O         143.4335  138.5824  167.1180 O.3     1  UNL1       -0.4714
@<TRIPOS>BOND
     1    35    36    1
     2    36    24    1
     3    24    25   ar
     4    25    26   ar
     5    26    27   ar
     6    27    28   ar
     7    28    29   ar
     8    29    30   ar
     9    30    31    2
    10    30    32   ar
    11    32    23    1
    12    23    22    1
    13    22     1    1
    14     1     2    1
    15     2     3    1
    16     3     4    1
    17     4     9    1
    18     9    11    1
    19    11    12    1
    20    12    13   ar
    21    13    14   ar
    22    14    15   ar
    23    15    16   ar
    24    16    17   ar
    25    15    18    1
    26    18    19    1
    27    19    20    1
    28    20    21    1
    29     4     5    1
    30     5     6    1
    31     5     7    1
    32    32    33   ar
    33    33    34   ar
    34    34    24   ar
    35    33    27   ar
    36     7     1    1
    37    17    12   ar
    38    21    14    1
    39     9    10    1
    40     6     8    1
@<TRIPOS>MOLECULE
*****
 36 40 0 0 0
SMALL
GASTEIGER

@<TRIPOS>ATOM
      1 N         142.4882  143.4577  160.8540 N.3     1  UNL1       -0.2689
      2 C         141.2713  143.3415  159.9847 C.3     1  UNL1        0.0737
      3 C         139.9749  143.9556  160.4232 C.3     1  UNL1        0.0356
      4 C         139.8955  144.6858  161.7310 C.3     1  UNL1        0.0843
      5 C         141.1124  144.8021  162.6003 C.3     1  UNL1        0.1407
      6 O         141.0328  145.5324  163.9081 O.3     1  UNL1       -0.3817
      7 C         142.4087  144.1880  162.1618 C.3     1  UNL1        0.1031
      8 H         140.1310  145.8650  164.0384 H       1  UNL1        0.2105
      9 N         138.5990  145.2999  162.1696 N.3     1  UNL1       -0.2915
     10 H         138.0827  145.5345  161.3218 H       1  UNL1        0.1236
     11 C         137.6613  144.5253  163.0474 C.3     1  UNL1        0.1153
     12 C         137.8491  143.0479  163.2258 C.ar    1  UNL1        0.0782
     13 C         138.3293  142.5061  164.5395 C.ar    1  UNL1        0.0562
     14 C         138.5171  141.0287  164.7180 C.ar    1  UNL1        0.1752
     15 C         138.2246  140.0929  163.5827 C.ar    1  UNL1        0.1914
     16 C         137.7444  140.6347  162.2689 C.ar    1  UNL1        0.1384
     17 N         137.5566  142.1122  162.0905 N.ar    1  UNL1       -0.2434
     18 O         138.4124  138.6155  163.7611 O.3     1  UNL1       -0.4668
     19 C         138.8927  138.0737  165.0748 C.3     1  UNL1        0.2527
     20 C         139.1852  139.0094  166.2101 C.3     1  UNL1        0.2526
     21 O         138.9974  140.4869  166.0317 O.3     1  UNL1       -0.4683
     22 C         143.7846  142.8436  160.4154 C.3     1  UNL1        0.0970
     23 C         144.5697  141.9898  161.3665 C.3     1  UNL1        0.1264
     24 C         143.3422  141.3238  165.6443 C.ar    1  UNL1        0.1403
     25 C         142.8063  139.9896  166.0718 C.ar    1  UNL1        0.0385
     26 C         142.6795  138.8774  165.0733 C.ar    1  UNL1        0.0237
     27 C         143.0887  139.0994  163.6474 C.ar    1  UNL1        0.0975
     28 N         142.9620  137.9872  162.6489 N.ar    1  UNL1       -0.2374
     29 C         143.3711  138.2092  161.2230 C.ar    1  UNL1        0.1594
     30 C         143.9070  139.5434  160.7955 C.ar    1  UNL1        0.2803
     31 O         144.3162  139.7654  159.3696 O.2     1  UNL1       -0.2653
     32 N         144.0338  140.6556  161.7940 N.ar    1  UNL1       -0.2913
     33 C         143.6246  140.4336  163.2199 C.ar    1  UNL1        0.0832
     34 C         143.7513  141.5458  164.2184 C.ar    1  UNL1        0.0557
     35 C         143.0906  142.2042  168.0757 C.3     1  UNL1        0.2525
     36 O         143.4689  142.4360  166.6428 O.3     1  UNL1       -0.4714
@<TRIPOS>BOND
     1    35    36    1
     2    36    24    1
     3    24    25   ar
     4    25    26   ar
     5    26    27   ar
     6    27    28   ar
     7    28    29   ar
     8    29    30   ar
     9    30    31    2
    10    30    32   ar
    11    32    23    1
    12    23    22    1
    13    22     1    1
    14     1     2    1
    15     2     3    1
    16     3     4    1
    17     4     9    1
    18     9    11    1
    19    11    12    1
    20    12    13   ar
    21    13    14   ar
    22    14    15   ar
    23    15    16   ar
    24    16    17   ar
    25    15    18    1
    26    18    19    1
    27    19    20    1
    28    20    21    1
    29     4     5    1
    30     5     6    1
    31     5     7    1
    32    32    33   ar
    33    33    34   ar
    34    34    24   ar
    35    33    27   ar
    36     7     1    1
    37    17    12   ar
    38    21    14    1
    39     9    10    1
    40     6     8    1
