@<TRIPOS>MOLECULE
*****
 41 46 0 0 0
SMALL
GASTEIGER

@<TRIPOS>ATOM
      1 O         139.6498  138.3436  159.3166 O.2     1  UNL1       -0.2696
      2 C         140.8420  138.2638  160.2234 C.2     1  UNL1        0.2541
      3 N         142.2237  138.2036  159.6424 N.am    1  UNL1       -0.2790
      4 H         143.0061  138.1512  160.2376 H       1  UNL1        0.1552
      5 C         142.4131  138.2234  158.1545 C.ar    1  UNL1        0.0729
      6 C         142.2847  139.4245  157.2653 C.ar    1  UNL1        0.1152
      7 N         142.5564  138.9889  155.8559 N.ar    1  UNL1       -0.2256
      8 C         142.8528  137.5185  155.8741 C.ar    1  UNL1        0.1418
      9 N         143.1919  136.5494  154.7807 N.ar    1  UNL1       -0.3374
     10 C         143.4424  135.1071  155.1079 C.ar    1  UNL1        0.0735
     11 C         143.3538  134.6340  156.5285 C.ar    1  UNL1        0.0193
     12 C         143.0148  135.6032  157.6220 C.ar    1  UNL1        0.0058
     13 C         142.7642  137.0454  157.2948 C.ar    1  UNL1        0.0490
     14 H         143.2500  136.8599  153.8482 H       1  UNL1        0.1674
     15 C         143.6044  133.1917  156.8557 C.ar    1  UNL1        0.0289
     16 C         144.8050  132.8043  157.6671 C.ar    1  UNL1        0.0023
     17 C         145.0556  131.3620  157.9942 C.ar    1  UNL1        0.0001
     18 C         144.1054  130.3071  157.5101 C.ar    1  UNL1        0.0023
     19 C         142.9047  130.6946  156.6987 C.ar    1  UNL1        0.0296
     20 C         142.6542  132.1368  156.3716 C.ar    1  UNL1        0.1401
     21 F         141.4535  132.5243  155.5602 F       1  UNL1       -0.2042
     22 C         140.6526  138.2440  161.7113 C.ar    1  UNL1        0.1103
     23 C         139.4067  137.8286  162.4360 C.ar    1  UNL1        0.1281
     24 N         139.6599  137.9641  163.9083 N.ar    1  UNL1       -0.1619
     25 N         141.0623  138.4633  164.0935 N.ar    1  UNL1       -0.2104
     26 C         141.8598  138.7826  165.3230 C.ar    1  UNL1        0.1049
     27 C         143.2709  139.2751  165.1948 C.ar    1  UNL1        0.0548
     28 C         143.8844  139.4481  163.8370 C.ar    1  UNL1        0.1317
     29 N         143.0868  139.1287  162.6074 N.ar    1  UNL1       -0.2119
     30 C         141.6758  138.6363  162.7356 C.ar    1  UNL1        0.1710
     31 N         145.2955  139.9405  163.7087 N.pl3   1  UNL1       -0.3179
     32 H         146.0098  139.3213  163.4336 H       1  UNL1        0.1482
     33 C         145.6181  141.3761  163.9995 C.3     1  UNL1        0.0909
     34 C         144.8201  142.4699  163.3537 C.3     1  UNL1        0.0549
     35 C         144.4325  142.3625  161.9087 C.3     1  UNL1        0.0216
     36 C         143.6345  143.4562  161.2630 C.3     1  UNL1        0.0688
     37 N         143.2243  144.6574  162.0623 N.3     1  UNL1       -0.2952
     38 C         143.6119  144.7648  163.5073 C.3     1  UNL1        0.1043
     39 C         144.4099  143.6711  164.1530 C.3     1  UNL1        0.1782
     40 F         144.7976  143.7785  165.5981 F       1  UNL1       -0.2357
     41 H         142.2058  144.7010  162.0266 H       1  UNL1        0.1233
@<TRIPOS>BOND
     1     1     2    2
     2     2     3   am
     3     3     5    1
     4     5     6   ar
     5     6     7   ar
     6     7     8   ar
     7     8     9   ar
     8     9    10   ar
     9    10    11   ar
    10    11    15    1
    11    15    16   ar
    12    16    17   ar
    13    17    18   ar
    14    18    19   ar
    15    19    20   ar
    16    20    21    1
    17    11    12   ar
    18    12    13   ar
    19     2    22    1
    20    22    23   ar
    21    23    24   ar
    22    24    25   ar
    23    25    26   ar
    24    26    27   ar
    25    27    28   ar
    26    28    31    1
    27    31    33    1
    28    34    33    1
    29    34    35    1
    30    35    36    1
    31    36    37    1
    32    37    38    1
    33    38    39    1
    34    39    40    1
    35    28    29   ar
    36    29    30   ar
    37    13     5   ar
    38    30    22   ar
    39    13     8    1
    40    30    25   ar
    41    20    15   ar
    42    39    34    1
    43     3     4    1
    44     9    14    1
    45    31    32    1
    46    37    41    1
@<TRIPOS>MOLECULE
*****
 41 46 0 0 0
SMALL
GASTEIGER

@<TRIPOS>ATOM
      1 O         138.3469  142.8512  159.1582 O.2     1  UNL1       -0.2696
      2 C         139.7413  142.3006  159.1080 C.2     1  UNL1        0.2541
      3 N         140.8004  142.8571  160.0129 N.am    1  UNL1       -0.2790
      4 H         141.7156  142.4958  159.9800 H       1  UNL1        0.1552
      5 C         140.4650  143.9642  160.9679 C.ar    1  UNL1        0.0729
      6 C         140.4935  145.4322  160.6609 C.ar    1  UNL1        0.1152
      7 N         140.0884  146.1729  161.9008 N.ar    1  UNL1       -0.2256
      8 C         139.8096  145.1627  162.9740 C.ar    1  UNL1        0.1418
      9 N         139.3738  145.3094  164.4018 N.ar    1  UNL1       -0.3374
     10 C         139.1708  144.0911  165.2529 C.ar    1  UNL1        0.0735
     11 C         139.4036  142.7261  164.6763 C.ar    1  UNL1        0.0193
     12 C         139.8394  142.5793  163.2486 C.ar    1  UNL1        0.0058
     13 C         140.0424  143.7976  162.3974 C.ar    1  UNL1        0.0490
     14 H         139.2210  146.2054  164.7802 H       1  UNL1        0.1674
     15 C         139.2006  141.5078  165.5276 C.ar    1  UNL1        0.0289
     16 C         139.9469  141.3635  166.8207 C.ar    1  UNL1        0.0023
     17 C         139.7439  140.1452  167.6719 C.ar    1  UNL1        0.0001
     18 C         138.7946  139.0712  167.2300 C.ar    1  UNL1        0.0023
     19 C         138.0483  139.2155  165.9368 C.ar    1  UNL1        0.0296
     20 C         138.2513  140.4338  165.0856 C.ar    1  UNL1        0.1401
     21 F         137.5050  140.5781  163.7924 F       1  UNL1       -0.2042
     22 C         140.0766  141.1935  158.1531 C.ar    1  UNL1        0.1103
     23 C         139.5635  141.0533  156.7506 C.ar    1  UNL1        0.1281
     24 N         140.1537  139.8054  156.1638 N.ar    1  UNL1       -0.1619
     25 N         141.0316  139.1744  157.2035 N.ar    1  UNL1       -0.2104
     26 C         141.8683  137.9295  157.1896 C.ar    1  UNL1        0.1049
     27 C         142.6573  137.5425  158.4053 C.ar    1  UNL1        0.0548
     28 C         142.6097  138.4004  159.6348 C.ar    1  UNL1        0.1317
     29 N         141.7730  139.6454  159.6486 N.ar    1  UNL1       -0.2119
     30 C         140.9840  140.0324  158.4330 C.ar    1  UNL1        0.1710
     31 N         143.3986  138.0135  160.8504 N.pl3   1  UNL1       -0.3179
     32 H         144.2763  137.5790  160.7498 H       1  UNL1        0.1482
     33 C         142.8503  138.2886  162.2192 C.3     1  UNL1        0.0909
     34 C         143.3671  139.4507  163.0145 C.3     1  UNL1        0.0549
     35 C         144.6063  140.1707  162.5719 C.3     1  UNL1        0.0216
     36 C         145.1229  141.3328  163.3672 C.3     1  UNL1        0.0688
     37 N         144.4003  141.7749  164.6052 N.3     1  UNL1       -0.2952
     38 C         143.1611  141.0549  165.0478 C.3     1  UNL1        0.1043
     39 C         142.6445  139.8928  164.2524 C.3     1  UNL1        0.1782
     40 F         141.4052  139.1728  164.6950 F       1  UNL1       -0.2357
     41 H         144.1386  142.7501  164.4609 H       1  UNL1        0.1233
@<TRIPOS>BOND
     1     1     2    2
     2     2     3   am
     3     3     5    1
     4     5     6   ar
     5     6     7   ar
     6     7     8   ar
     7     8     9   ar
     8     9    10   ar
     9    10    11   ar
    10    11    15    1
    11    15    16   ar
    12    16    17   ar
    13    17    18   ar
    14    18    19   ar
    15    19    20   ar
    16    20    21    1
    17    11    12   ar
    18    12    13   ar
    19     2    22    1
    20    22    23   ar
    21    23    24   ar
    22    24    25   ar
    23    25    26   ar
    24    26    27   ar
    25    27    28   ar
    26    28    31    1
    27    31    33    1
    28    34    33    1
    29    34    35    1
    30    35    36    1
    31    36    37    1
    32    37    38    1
    33    38    39    1
    34    39    40    1
    35    28    29   ar
    36    29    30   ar
    37    13     5   ar
    38    30    22   ar
    39    13     8    1
    40    30    25   ar
    41    20    15   ar
    42    39    34    1
    43     3     4    1
    44     9    14    1
    45    31    32    1
    46    37    41    1
@<TRIPOS>MOLECULE
*****
 41 46 0 0 0
SMALL
GASTEIGER

@<TRIPOS>ATOM
      1 O         142.9247  144.0773  159.2916 O.2     1  UNL1       -0.2696
      2 C         141.9248  142.9820  159.0666 C.2     1  UNL1        0.2541
      3 N         140.6180  142.9966  159.8029 N.am    1  UNL1       -0.2790
      4 H         139.9618  142.2777  159.6552 H       1  UNL1        0.1552
      5 C         140.3111  144.1064  160.7642 C.ar    1  UNL1        0.0729
      6 C         140.3218  145.5731  160.4501 C.ar    1  UNL1        0.1152
      7 N         139.9569  146.3175  161.7001 N.ar    1  UNL1       -0.2256
      8 C         139.7207  145.3109  162.7869 C.ar    1  UNL1        0.1418
      9 N         139.3345  145.4621  164.2283 N.ar    1  UNL1       -0.3374
     10 C         139.1672  144.2467  165.0914 C.ar    1  UNL1        0.0735
     11 C         139.3861  142.8802  164.5129 C.ar    1  UNL1        0.0193
     12 C         139.7723  142.7290  163.0714 C.ar    1  UNL1        0.0058
     13 C         139.9395  143.9443  162.2084 C.ar    1  UNL1        0.0490
     14 H         139.1908  146.3590  164.6080 H       1  UNL1        0.1674
     15 C         139.2188  141.6648  165.3761 C.ar    1  UNL1        0.0289
     16 C         139.9783  141.5495  166.6644 C.ar    1  UNL1        0.0023
     17 C         139.8110  140.3341  167.5275 C.ar    1  UNL1        0.0001
     18 C         138.8842  139.2340  167.1022 C.ar    1  UNL1        0.0023
     19 C         138.1247  139.3493  165.8138 C.ar    1  UNL1        0.0296
     20 C         138.2920  140.5647  164.9508 C.ar    1  UNL1        0.1401
     21 F         137.5325  140.6800  163.6623 F       1  UNL1       -0.2042
     22 C         142.2318  141.8722  158.1053 C.ar    1  UNL1        0.1103
     23 C         142.4698  142.0225  156.6319 C.ar    1  UNL1        0.1281
     24 N         142.7397  140.6604  156.0647 N.ar    1  UNL1       -0.1619
     25 N         142.6684  139.6682  157.1874 N.ar    1  UNL1       -0.2104
     26 C         142.8488  138.1796  157.2243 C.ar    1  UNL1        0.1049
     27 C         142.7152  137.4398  158.5224 C.ar    1  UNL1        0.0548
     28 C         142.4013  138.1888  159.7836 C.ar    1  UNL1        0.1317
     29 N         142.2209  139.6775  159.7466 N.ar    1  UNL1       -0.2119
     30 C         142.3545  140.4172  158.4486 C.ar    1  UNL1        0.1710
     31 N         142.2677  137.4491  161.0816 N.pl3   1  UNL1       -0.3179
     32 H         142.7874  136.6272  161.2356 H       1  UNL1        0.1482
     33 C         141.3424  137.9616  162.1451 C.3     1  UNL1        0.0909
     34 C         141.8997  138.6451  163.3585 C.3     1  UNL1        0.0549
     35 C         142.4477  140.0372  163.2498 C.3     1  UNL1        0.0216
     36 C         143.0050  140.7206  164.4632 C.3     1  UNL1        0.0688
     37 N         143.0143  140.0119  165.7852 N.3     1  UNL1       -0.2952
     38 C         142.4663  138.6199  165.8939 C.3     1  UNL1        0.1043
     39 C         141.9090  137.9365  164.6805 C.3     1  UNL1        0.1782
     40 F         141.3610  136.5443  164.7891 F       1  UNL1       -0.2357
     41 H         142.4794  140.5903  166.4331 H       1  UNL1        0.1233
@<TRIPOS>BOND
     1     1     2    2
     2     2     3   am
     3     3     5    1
     4     5     6   ar
     5     6     7   ar
     6     7     8   ar
     7     8     9   ar
     8     9    10   ar
     9    10    11   ar
    10    11    15    1
    11    15    16   ar
    12    16    17   ar
    13    17    18   ar
    14    18    19   ar
    15    19    20   ar
    16    20    21    1
    17    11    12   ar
    18    12    13   ar
    19     2    22    1
    20    22    23   ar
    21    23    24   ar
    22    24    25   ar
    23    25    26   ar
    24    26    27   ar
    25    27    28   ar
    26    28    31    1
    27    31    33    1
    28    34    33    1
    29    34    35    1
    30    35    36    1
    31    36    37    1
    32    37    38    1
    33    38    39    1
    34    39    40    1
    35    28    29   ar
    36    29    30   ar
    37    13     5   ar
    38    30    22   ar
    39    13     8    1
    40    30    25   ar
    41    20    15   ar
    42    39    34    1
    43     3     4    1
    44     9    14    1
    45    31    32    1
    46    37    41    1
@<TRIPOS>MOLECULE
*****
 41 46 0 0 0
SMALL
GASTEIGER

@<TRIPOS>ATOM
      1 O         137.7320  138.9168  167.5587 O.2     1  UNL1       -0.2696
      2 C         139.1208  139.4831  167.5818 C.2     1  UNL1        0.2541
      3 N         139.9871  139.3949  166.3603 N.am    1  UNL1       -0.2790
      4 H         140.8986  139.7666  166.3754 H       1  UNL1        0.1552
      5 C         139.4645  138.7405  165.1158 C.ar    1  UNL1        0.0729
      6 C         138.8174  137.3897  165.0352 C.ar    1  UNL1        0.1152
      7 N         138.4503  137.1364  163.6030 N.ar    1  UNL1       -0.2256
      8 C         138.8705  138.3307  162.7986 C.ar    1  UNL1        0.1418
      9 N         138.7633  138.6436  161.3355 N.ar    1  UNL1       -0.3374
     10 C         139.2829  139.9478  160.8074 C.ar    1  UNL1        0.0735
     11 C         139.9098  140.9392  161.7424 C.ar    1  UNL1        0.0193
     12 C         140.0169  140.6264  163.2055 C.ar    1  UNL1        0.0058
     13 C         139.4973  139.3222  163.7336 C.ar    1  UNL1        0.0490
     14 H         138.3519  137.9929  160.7218 H       1  UNL1        0.1674
     15 C         140.4294  142.2435  161.2143 C.ar    1  UNL1        0.0289
     16 C         141.8740  142.3761  160.8329 C.ar    1  UNL1        0.0023
     17 C         142.3936  143.6804  160.3048 C.ar    1  UNL1        0.0001
     18 C         141.4686  144.8521  160.1580 C.ar    1  UNL1        0.0023
     19 C         140.0239  144.7194  160.5394 C.ar    1  UNL1        0.0296
     20 C         139.5044  143.4152  161.0675 C.ar    1  UNL1        0.1401
     21 F         138.0597  143.2825  161.4490 F       1  UNL1       -0.2042
     22 C         139.6433  140.1375  168.8262 C.ar    1  UNL1        0.1103
     23 C         139.0384  140.0381  170.1952 C.ar    1  UNL1        0.1281
     24 N         139.8838  140.8454  171.1352 N.ar    1  UNL1       -0.1619
     25 N         141.0112  141.4436  170.3472 N.ar    1  UNL1       -0.2104
     26 C         142.1539  142.3302  170.7447 C.ar    1  UNL1        0.1049
     27 C         143.1481  142.7794  169.7152 C.ar    1  UNL1        0.0548
     28 C         142.9995  142.3419  168.2881 C.ar    1  UNL1        0.1317
     29 N         141.8567  141.4552  167.8906 N.ar    1  UNL1       -0.2119
     30 C         140.8626  141.0061  168.9202 C.ar    1  UNL1        0.1710
     31 N         143.9936  142.7910  167.2586 N.pl3   1  UNL1       -0.3179
     32 H         144.9368  142.9213  167.5089 H       1  UNL1        0.1482
     33 C         143.5507  143.0414  165.8475 C.3     1  UNL1        0.0909
     34 C         144.0873  142.1948  164.7315 C.3     1  UNL1        0.0549
     35 C         144.7117  142.8433  163.5317 C.3     1  UNL1        0.0216
     36 C         145.2483  141.9966  162.4158 C.3     1  UNL1        0.0688
     37 N         145.1605  140.5016  162.4997 N.3     1  UNL1       -0.2952
     38 C         144.5361  139.8531  163.6995 C.3     1  UNL1        0.1043
     39 C         143.9995  140.6997  164.8154 C.3     1  UNL1        0.1782
     40 F         143.3751  140.0512  166.0153 F       1  UNL1       -0.2357
     41 H         146.1146  140.1466  162.4362 H       1  UNL1        0.1233
@<TRIPOS>BOND
     1     1     2    2
     2     2     3   am
     3     3     5    1
     4     5     6   ar
     5     6     7   ar
     6     7     8   ar
     7     8     9   ar
     8     9    10   ar
     9    10    11   ar
    10    11    15    1
    11    15    16   ar
    12    16    17   ar
    13    17    18   ar
    14    18    19   ar
    15    19    20   ar
    16    20    21    1
    17    11    12   ar
    18    12    13   ar
    19     2    22    1
    20    22    23   ar
    21    23    24   ar
    22    24    25   ar
    23    25    26   ar
    24    26    27   ar
    25    27    28   ar
    26    28    31    1
    27    31    33    1
    28    34    33    1
    29    34    35    1
    30    35    36    1
    31    36    37    1
    32    37    38    1
    33    38    39    1
    34    39    40    1
    35    28    29   ar
    36    29    30   ar
    37    13     5   ar
    38    30    22   ar
    39    13     8    1
    40    30    25   ar
    41    20    15   ar
    42    39    34    1
    43     3     4    1
    44     9    14    1
    45    31    32    1
    46    37    41    1
@<TRIPOS>MOLECULE
*****
 41 46 0 0 0
SMALL
GASTEIGER

@<TRIPOS>ATOM
      1 O         137.7720  138.8447  167.5885 O.2     1  UNL1       -0.2696
      2 C         139.1505  139.4354  167.5653 C.2     1  UNL1        0.2541
      3 N         139.9768  139.3626  166.3153 N.am    1  UNL1       -0.2790
      4 H         140.8816  139.7503  166.3001 H       1  UNL1        0.1552
      5 C         139.4244  138.6989  165.0888 C.ar    1  UNL1        0.0729
      6 C         138.7410  137.3645  165.0403 C.ar    1  UNL1        0.1152
      7 N         138.3527  137.0941  163.6169 N.ar    1  UNL1       -0.2256
      8 C         138.7960  138.2614  162.7857 C.ar    1  UNL1        0.1418
      9 N         138.6822  138.5493  161.3180 N.ar    1  UNL1       -0.3374
     10 C         139.2307  139.8291  160.7600 C.ar    1  UNL1        0.0735
     11 C         139.8930  140.8209  161.6697 C.ar    1  UNL1        0.0193
     12 C         140.0069  140.5330  163.1374 C.ar    1  UNL1        0.0058
     13 C         139.4584  139.2533  163.6954 C.ar    1  UNL1        0.0490
     14 H         138.2474  137.8984  160.7209 H       1  UNL1        0.1674
     15 C         140.4415  142.1007  161.1117 C.ar    1  UNL1        0.0289
     16 C         141.9247  142.2995  161.0093 C.ar    1  UNL1        0.0023
     17 C         142.4732  143.5793  160.4513 C.ar    1  UNL1        0.0001
     18 C         141.5384  144.6603  159.9956 C.ar    1  UNL1        0.0023
     19 C         140.0551  144.4615  160.0980 C.ar    1  UNL1        0.0296
     20 C         139.5067  143.1817  160.6561 C.ar    1  UNL1        0.1401
     21 F         138.0234  142.9829  160.7585 F       1  UNL1       -0.2042
     22 C         139.7029  140.0991  168.7918 C.ar    1  UNL1        0.1103
     23 C         139.1543  139.9779  170.1826 C.ar    1  UNL1        0.1281
     24 N         140.0133  140.8043  171.0933 N.ar    1  UNL1       -0.1619
     25 N         141.0927  141.4363  170.2653 N.ar    1  UNL1       -0.2104
     26 C         142.2254  142.3522  170.6227 C.ar    1  UNL1        0.1049
     27 C         143.1664  142.8324  169.5577 C.ar    1  UNL1        0.0548
     28 C         142.9746  142.3965  168.1354 C.ar    1  UNL1        0.1317
     29 N         141.8418  141.4804  167.7779 N.ar    1  UNL1       -0.2119
     30 C         140.9009  141.0004  168.8429 C.ar    1  UNL1        0.1710
     31 N         143.9155  142.8766  167.0704 N.pl3   1  UNL1       -0.3179
     32 H         144.7565  143.3229  167.3213 H       1  UNL1        0.1482
     33 C         143.5752  142.6766  165.6233 C.3     1  UNL1        0.0909
     34 C         142.5048  143.5095  164.9826 C.3     1  UNL1        0.0549
     35 C         141.0596  143.1889  165.2245 C.3     1  UNL1        0.0216
     36 C         139.9892  144.0217  164.5838 C.3     1  UNL1        0.0688
     37 N         140.3640  145.1752  163.7011 N.3     1  UNL1       -0.2952
     38 C         141.8092  145.4957  163.4591 C.3     1  UNL1        0.1043
     39 C         142.8796  144.6629  164.0999 C.3     1  UNL1        0.1782
     40 F         144.3249  144.9835  163.8579 F       1  UNL1       -0.2357
     41 H         139.9421  146.0086  164.1106 H       1  UNL1        0.1233
@<TRIPOS>BOND
     1     1     2    2
     2     2     3   am
     3     3     5    1
     4     5     6   ar
     5     6     7   ar
     6     7     8   ar
     7     8     9   ar
     8     9    10   ar
     9    10    11   ar
    10    11    15    1
    11    15    16   ar
    12    16    17   ar
    13    17    18   ar
    14    18    19   ar
    15    19    20   ar
    16    20    21    1
    17    11    12   ar
    18    12    13   ar
    19     2    22    1
    20    22    23   ar
    21    23    24   ar
    22    24    25   ar
    23    25    26   ar
    24    26    27   ar
    25    27    28   ar
    26    28    31    1
    27    31    33    1
    28    34    33    1
    29    34    35    1
    30    35    36    1
    31    36    37    1
    32    37    38    1
    33    38    39    1
    34    39    40    1
    35    28    29   ar
    36    29    30   ar
    37    13     5   ar
    38    30    22   ar
    39    13     8    1
    40    30    25   ar
    41    20    15   ar
    42    39    34    1
    43     3     4    1
    44     9    14    1
    45    31    32    1
    46    37    41    1
@<TRIPOS>MOLECULE
*****
 41 46 0 0 0
SMALL
GASTEIGER

@<TRIPOS>ATOM
      1 O         142.2968  138.3018  165.2613 O.2     1  UNL1       -0.2696
      2 C         141.7948  139.0539  164.0645 C.2     1  UNL1        0.2541
      3 N         140.3613  139.4912  164.0006 N.am    1  UNL1       -0.2790
      4 H         140.0318  139.9849  163.2151 H       1  UNL1        0.1552
      5 C         139.4299  139.1764  165.1334 C.ar    1  UNL1        0.0729
      6 C         138.2050  138.3143  165.0542 C.ar    1  UNL1        0.1152
      7 N         137.5780  138.2736  166.4163 N.ar    1  UNL1       -0.2256
      8 C         138.4155  139.1105  167.3373 C.ar    1  UNL1        0.1418
      9 N         138.2837  139.4366  168.7955 N.ar    1  UNL1       -0.3374
     10 C         139.2964  140.3207  169.4608 C.ar    1  UNL1        0.0735
     11 C         140.4410  140.8787  168.6679 C.ar    1  UNL1        0.0193
     12 C         140.5728  140.5526  167.2098 C.ar    1  UNL1        0.0058
     13 C         139.5600  139.6685  166.5445 C.ar    1  UNL1        0.0490
     14 H         137.5324  139.0704  169.3158 H       1  UNL1        0.1674
     15 C         141.4538  141.7628  169.3333 C.ar    1  UNL1        0.0289
     16 C         141.0234  143.0543  169.9630 C.ar    1  UNL1        0.0023
     17 C         142.0362  143.9385  170.6284 C.ar    1  UNL1        0.0001
     18 C         143.4794  143.5309  170.6640 C.ar    1  UNL1        0.0023
     19 C         143.9097  142.2393  170.0342 C.ar    1  UNL1        0.0296
     20 C         142.8969  141.3553  169.3689 C.ar    1  UNL1        0.1401
     21 F         143.3273  140.0636  168.7391 F       1  UNL1       -0.2042
     22 C         142.7262  139.3687  162.9316 C.ar    1  UNL1        0.1103
     23 C         143.5455  138.3756  162.1619 C.ar    1  UNL1        0.1281
     24 N         144.3274  139.1251  161.1241 N.ar    1  UNL1       -0.1619
     25 N         143.9914  140.5813  161.2525 N.ar    1  UNL1       -0.2104
     26 C         144.4587  141.7896  160.4965 C.ar    1  UNL1        0.1049
     27 C         143.9363  143.1486  160.8576 C.ar    1  UNL1        0.0548
     28 C         142.9466  143.2992  161.9747 C.ar    1  UNL1        0.1317
     29 N         142.4794  142.0908  162.7307 N.ar    1  UNL1       -0.2119
     30 C         143.0017  140.7319  162.3696 C.ar    1  UNL1        0.1710
     31 N         142.4243  144.6581  162.3358 N.pl3   1  UNL1       -0.3179
     32 H         142.9110  145.2161  162.9847 H       1  UNL1        0.1482
     33 C         141.1604  145.1668  161.7083 C.3     1  UNL1        0.0909
     34 C         139.8662  144.4431  161.9354 C.3     1  UNL1        0.0549
     35 C         138.9808  144.8317  163.0820 C.3     1  UNL1        0.0216
     36 C         137.6867  144.1080  163.3090 C.3     1  UNL1        0.0688
     37 N         137.2781  142.9957  162.3893 N.3     1  UNL1       -0.2952
     38 C         138.1636  142.6071  161.2427 C.3     1  UNL1        0.1043
     39 C         139.4576  143.3308  161.0157 C.3     1  UNL1        0.1782
     40 F         140.3432  142.9422  159.8690 F       1  UNL1       -0.2357
     41 H         136.3776  143.2599  161.9896 H       1  UNL1        0.1233
@<TRIPOS>BOND
     1     1     2    2
     2     2     3   am
     3     3     5    1
     4     5     6   ar
     5     6     7   ar
     6     7     8   ar
     7     8     9   ar
     8     9    10   ar
     9    10    11   ar
    10    11    15    1
    11    15    16   ar
    12    16    17   ar
    13    17    18   ar
    14    18    19   ar
    15    19    20   ar
    16    20    21    1
    17    11    12   ar
    18    12    13   ar
    19     2    22    1
    20    22    23   ar
    21    23    24   ar
    22    24    25   ar
    23    25    26   ar
    24    26    27   ar
    25    27    28   ar
    26    28    31    1
    27    31    33    1
    28    34    33    1
    29    34    35    1
    30    35    36    1
    31    36    37    1
    32    37    38    1
    33    38    39    1
    34    39    40    1
    35    28    29   ar
    36    29    30   ar
    37    13     5   ar
    38    30    22   ar
    39    13     8    1
    40    30    25   ar
    41    20    15   ar
    42    39    34    1
    43     3     4    1
    44     9    14    1
    45    31    32    1
    46    37    41    1
@<TRIPOS>MOLECULE
*****
 41 46 0 0 0
SMALL
GASTEIGER

@<TRIPOS>ATOM
      1 O         139.5707  138.4949  160.0917 O.2     1  UNL1       -0.2696
      2 C         140.7762  138.2756  160.9569 C.2     1  UNL1        0.2541
      3 N         142.1434  138.2322  160.3412 N.am    1  UNL1       -0.2790
      4 H         142.9347  138.0883  160.9090 H       1  UNL1        0.1552
      5 C         142.3050  138.4081  158.8603 C.ar    1  UNL1        0.0729
      6 C         142.1447  139.6925  158.1023 C.ar    1  UNL1        0.1152
      7 N         142.3959  139.4087  156.6510 N.ar    1  UNL1       -0.2256
      8 C         142.7115  137.9489  156.5120 C.ar    1  UNL1        0.1418
      9 N         143.0428  137.1028  155.3186 N.ar    1  UNL1       -0.3374
     10 C         143.3180  135.6383  155.4906 C.ar    1  UNL1        0.0735
     11 C         143.2618  135.0200  156.8561 C.ar    1  UNL1        0.0193
     12 C         142.9305  135.8660  158.0495 C.ar    1  UNL1        0.0058
     13 C         142.6554  137.3305  157.8775 C.ar    1  UNL1        0.0490
     14 H         143.0797  137.5087  154.4224 H       1  UNL1        0.1674
     15 C         143.5370  133.5554  157.0280 C.ar    1  UNL1        0.0289
     16 C         144.7663  133.1041  157.7595 C.ar    1  UNL1        0.0023
     17 C         145.0414  131.6395  157.9314 C.ar    1  UNL1        0.0001
     18 C         144.0872  130.6264  157.3719 C.ar    1  UNL1        0.0023
     19 C         142.8579  131.0778  156.6404 C.ar    1  UNL1        0.0296
     20 C         142.5828  132.5423  156.4685 C.ar    1  UNL1        0.1401
     21 F         141.3534  132.9937  155.7370 F       1  UNL1       -0.2042
     22 C         140.6146  138.0997  162.4377 C.ar    1  UNL1        0.1103
     23 C         141.2624  137.0372  163.2753 C.ar    1  UNL1        0.1281
     24 N         140.8250  137.2363  164.6962 N.ar    1  UNL1       -0.1619
     25 N         139.9069  138.4218  164.7368 N.ar    1  UNL1       -0.2104
     26 C         139.1724  139.0843  165.8645 C.ar    1  UNL1        0.1049
     27 C         138.3080  140.2805  165.5963 C.ar    1  UNL1        0.0548
     28 C         138.1780  140.8142  164.2005 C.ar    1  UNL1        0.1317
     29 N         138.9124  140.1516  163.0728 N.ar    1  UNL1       -0.2119
     30 C         139.7768  138.9554  163.3410 C.ar    1  UNL1        0.1710
     31 N         137.3135  142.0103  163.9323 N.pl3   1  UNL1       -0.3179
     32 H         136.4217  141.8934  163.5320 H       1  UNL1        0.1482
     33 C         137.8079  143.3846  164.2740 C.3     1  UNL1        0.0909
     34 C         138.9766  143.9665  163.5352 C.3     1  UNL1        0.0549
     35 C         140.0733  144.6567  164.2909 C.3     1  UNL1        0.0216
     36 C         141.2419  145.2385  163.5521 C.3     1  UNL1        0.0688
     37 N         141.3139  145.1301  162.0578 N.3     1  UNL1       -0.2952
     38 C         140.2173  144.4399  161.3022 C.3     1  UNL1        0.1043
     39 C         139.0486  143.8581  162.0409 C.3     1  UNL1        0.1782
     40 F         137.9519  143.1678  161.2853 F       1  UNL1       -0.2357
     41 H         142.1785  144.6348  161.8398 H       1  UNL1        0.1233
@<TRIPOS>BOND
     1     1     2    2
     2     2     3   am
     3     3     5    1
     4     5     6   ar
     5     6     7   ar
     6     7     8   ar
     7     8     9   ar
     8     9    10   ar
     9    10    11   ar
    10    11    15    1
    11    15    16   ar
    12    16    17   ar
    13    17    18   ar
    14    18    19   ar
    15    19    20   ar
    16    20    21    1
    17    11    12   ar
    18    12    13   ar
    19     2    22    1
    20    22    23   ar
    21    23    24   ar
    22    24    25   ar
    23    25    26   ar
    24    26    27   ar
    25    27    28   ar
    26    28    31    1
    27    31    33    1
    28    34    33    1
    29    34    35    1
    30    35    36    1
    31    36    37    1
    32    37    38    1
    33    38    39    1
    34    39    40    1
    35    28    29   ar
    36    29    30   ar
    37    13     5   ar
    38    30    22   ar
    39    13     8    1
    40    30    25   ar
    41    20    15   ar
    42    39    34    1
    43     3     4    1
    44     9    14    1
    45    31    32    1
    46    37    41    1
@<TRIPOS>MOLECULE
*****
 41 46 0 0 0
SMALL
GASTEIGER

@<TRIPOS>ATOM
      1 O         140.7689  145.3301  160.8910 O.2     1  UNL1       -0.2696
      2 C         139.9716  144.2387  160.2406 C.2     1  UNL1        0.2541
      3 N         139.0215  143.4147  161.0582 N.am    1  UNL1       -0.2790
      4 H         138.4982  142.6983  160.6313 H       1  UNL1        0.1552
      5 C         138.8687  143.6822  162.5262 C.ar    1  UNL1        0.0729
      6 C         137.8189  144.5457  163.1605 C.ar    1  UNL1        0.1152
      7 N         138.0403  144.5303  164.6440 N.ar    1  UNL1       -0.2256
      8 C         139.2269  143.6573  164.9266 C.ar    1  UNL1        0.1418
      9 N         139.9074  143.2719  166.2066 N.ar    1  UNL1       -0.3374
     10 C         141.0998  142.3624  166.1777 C.ar    1  UNL1        0.0735
     11 C         141.6118  141.8382  164.8688 C.ar    1  UNL1        0.0193
     12 C         140.9313  142.2236  163.5888 C.ar    1  UNL1        0.0058
     13 C         139.7389  143.1331  163.6177 C.ar    1  UNL1        0.0490
     14 H         139.5714  143.6159  167.0656 H       1  UNL1        0.1674
     15 C         142.8043  140.9287  164.8400 C.ar    1  UNL1        0.0289
     16 C         144.0653  141.3667  164.1560 C.ar    1  UNL1        0.0023
     17 C         145.2578  140.4571  164.1272 C.ar    1  UNL1        0.0001
     18 C         145.1891  139.1095  164.7824 C.ar    1  UNL1        0.0023
     19 C         143.9280  138.6715  165.4664 C.ar    1  UNL1        0.0296
     20 C         142.7356  139.5811  165.4952 C.ar    1  UNL1        0.1401
     21 F         141.4745  139.1430  166.1792 F       1  UNL1       -0.2042
     22 C         140.1244  143.9711  158.7725 C.ar    1  UNL1        0.1103
     23 C         140.0590  144.9950  157.6783 C.ar    1  UNL1        0.1281
     24 N         140.2636  144.2894  156.3705 N.ar    1  UNL1       -0.1619
     25 N         140.4554  142.8295  156.6565 N.ar    1  UNL1       -0.2104
     26 C         140.6973  141.6538  155.7570 C.ar    1  UNL1        0.1049
     27 C         140.8531  140.2813  156.3419 C.ar    1  UNL1        0.0548
     28 C         140.7671  140.0846  157.8265 C.ar    1  UNL1        0.1317
     29 N         140.5252  141.2604  158.7261 N.ar    1  UNL1       -0.2119
     30 C         140.3694  142.6328  158.1411 C.ar    1  UNL1        0.1710
     31 N         140.9229  138.7123  158.4115 N.pl3   1  UNL1       -0.3179
     32 H         140.6347  137.9229  157.8986 H       1  UNL1        0.1482
     33 C         141.5180  138.5426  159.7779 C.3     1  UNL1        0.0909
     34 C         140.6312  138.2443  160.9504 C.3     1  UNL1        0.0549
     35 C         139.1405  138.3181  160.8012 C.3     1  UNL1        0.0216
     36 C         138.2538  138.0198  161.9737 C.3     1  UNL1        0.0688
     37 N         138.8578  137.6478  163.2953 N.3     1  UNL1       -0.2952
     38 C         140.3485  137.5740  163.4445 C.3     1  UNL1        0.1043
     39 C         141.2352  137.8723  162.2721 C.3     1  UNL1        0.1782
     40 F         142.7260  137.7986  162.4212 F       1  UNL1       -0.2357
     41 H         138.4917  136.7271  163.5377 H       1  UNL1        0.1233
@<TRIPOS>BOND
     1     1     2    2
     2     2     3   am
     3     3     5    1
     4     5     6   ar
     5     6     7   ar
     6     7     8   ar
     7     8     9   ar
     8     9    10   ar
     9    10    11   ar
    10    11    15    1
    11    15    16   ar
    12    16    17   ar
    13    17    18   ar
    14    18    19   ar
    15    19    20   ar
    16    20    21    1
    17    11    12   ar
    18    12    13   ar
    19     2    22    1
    20    22    23   ar
    21    23    24   ar
    22    24    25   ar
    23    25    26   ar
    24    26    27   ar
    25    27    28   ar
    26    28    31    1
    27    31    33    1
    28    34    33    1
    29    34    35    1
    30    35    36    1
    31    36    37    1
    32    37    38    1
    33    38    39    1
    34    39    40    1
    35    28    29   ar
    36    29    30   ar
    37    13     5   ar
    38    30    22   ar
    39    13     8    1
    40    30    25   ar
    41    20    15   ar
    42    39    34    1
    43     3     4    1
    44     9    14    1
    45    31    32    1
    46    37    41    1
@<TRIPOS>MOLECULE
*****
 41 46 0 0 0
SMALL
GASTEIGER

@<TRIPOS>ATOM
      1 O         141.4271  137.1651  163.7591 O.2     1  UNL1       -0.2696
      2 C         141.4582  138.5673  163.2273 C.2     1  UNL1        0.2541
      3 N         140.5547  139.6118  163.8129 N.am    1  UNL1       -0.2790
      4 H         140.5751  140.5321  163.4638 H       1  UNL1        0.1552
      5 C         139.6202  139.2541  164.9304 C.ar    1  UNL1        0.0729
      6 C         138.4012  138.3874  164.8170 C.ar    1  UNL1        0.1152
      7 N         137.7683  138.2979  166.1740 N.ar    1  UNL1       -0.2256
      8 C         138.5962  139.1093  167.1260 C.ar    1  UNL1        0.1418
      9 N         138.4556  139.3864  168.5935 N.ar    1  UNL1       -0.3374
     10 C         139.4597  140.2544  169.2923 C.ar    1  UNL1        0.0735
     11 C         140.6042  140.8454  168.5237 C.ar    1  UNL1        0.0193
     12 C         140.7447  140.5683  167.0562 C.ar    1  UNL1        0.0058
     13 C         139.7407  139.7003  166.3574 C.ar    1  UNL1        0.0490
     14 H         137.7044  138.9985  169.0979 H       1  UNL1        0.1674
     15 C         141.6083  141.7135  169.2226 C.ar    1  UNL1        0.0289
     16 C         143.0627  141.3475  169.1974 C.ar    1  UNL1        0.0023
     17 C         144.0667  142.2155  169.8963 C.ar    1  UNL1        0.0001
     18 C         143.6163  143.4496  170.6204 C.ar    1  UNL1        0.0023
     19 C         142.1618  143.8156  170.6455 C.ar    1  UNL1        0.0296
     20 C         141.1578  142.9475  169.9466 C.ar    1  UNL1        0.1401
     21 F         139.7033  143.3135  169.9717 F       1  UNL1       -0.2042
     22 C         142.3927  138.9250  162.1098 C.ar    1  UNL1        0.1103
     23 C         143.7090  138.2682  161.8168 C.ar    1  UNL1        0.1281
     24 N         144.3047  138.9396  160.6151 N.ar    1  UNL1       -0.1619
     25 N         143.3566  140.0114  160.1653 N.ar    1  UNL1       -0.2104
     26 C         143.4166  140.9944  159.0339 C.ar    1  UNL1        0.1049
     27 C         142.2948  141.9684  158.8262 C.ar    1  UNL1        0.0548
     28 C         141.1131  141.9594  159.7500 C.ar    1  UNL1        0.1317
     29 N         141.0531  140.9763  160.8815 N.ar    1  UNL1       -0.2119
     30 C         142.1748  140.0024  161.0891 C.ar    1  UNL1        0.1710
     31 N         139.9914  142.9333  159.5424 N.pl3   1  UNL1       -0.3179
     32 H         140.1128  143.7031  158.9409 H       1  UNL1        0.1482
     33 C         138.6846  142.7343  160.2514 C.3     1  UNL1        0.0909
     34 C         138.5598  143.0810  161.7055 C.3     1  UNL1        0.0549
     35 C         139.1649  144.3499  162.2286 C.3     1  UNL1        0.0216
     36 C         139.0401  144.6965  163.6826 C.3     1  UNL1        0.0688
     37 N         138.3101  143.7742  164.6136 N.3     1  UNL1       -0.2952
     38 C         137.7050  142.5054  164.0904 C.3     1  UNL1        0.1043
     39 C         137.8298  142.1588  162.6364 C.3     1  UNL1        0.1782
     40 F         137.2246  140.8898  162.1132 F       1  UNL1       -0.2357
     41 H         137.5500  144.3143  165.0271 H       1  UNL1        0.1233
@<TRIPOS>BOND
     1     1     2    2
     2     2     3   am
     3     3     5    1
     4     5     6   ar
     5     6     7   ar
     6     7     8   ar
     7     8     9   ar
     8     9    10   ar
     9    10    11   ar
    10    11    15    1
    11    15    16   ar
    12    16    17   ar
    13    17    18   ar
    14    18    19   ar
    15    19    20   ar
    16    20    21    1
    17    11    12   ar
    18    12    13   ar
    19     2    22    1
    20    22    23   ar
    21    23    24   ar
    22    24    25   ar
    23    25    26   ar
    24    26    27   ar
    25    27    28   ar
    26    28    31    1
    27    31    33    1
    28    34    33    1
    29    34    35    1
    30    35    36    1
    31    36    37    1
    32    37    38    1
    33    38    39    1
    34    39    40    1
    35    28    29   ar
    36    29    30   ar
    37    13     5   ar
    38    30    22   ar
    39    13     8    1
    40    30    25   ar
    41    20    15   ar
    42    39    34    1
    43     3     4    1
    44     9    14    1
    45    31    32    1
    46    37    41    1
