@<TRIPOS>MOLECULE
*****
 26 28 0 0 0
SMALL
GASTEIGER

@<TRIPOS>ATOM
      1 C         140.5766  137.6991  164.3119 C.3     1  UNL1        0.0477
      2 C         140.4010  138.5757  165.5164 C.3     1  UNL1        0.1780
      3 C         141.8982  138.5006  165.4651 C.3     1  UNL1        0.0685
      4 C         142.7209  139.2224  166.4908 C.3     1  UNL1        0.1145
      5 N         142.0463  140.0193  167.5678 N.ar    1  UNL1       -0.2749
      6 C         142.5904  140.8300  168.7066 C.ar    1  UNL1        0.1779
      7 C         141.4294  141.4061  169.4617 C.ar    1  UNL1        0.3976
      8 N         140.1678  140.9515  168.7896 N.ar    1  UNL1       -0.1275
      9 C         140.5491  140.0944  167.6191 C.ar    1  UNL1        0.3057
     10 O         139.7264  139.3726  166.5934 O.3     1  UNL1       -0.4512
     11 N         141.5150  142.2830  170.6758 N.pl3   1  UNL1        0.1030
     12 O         142.4801  143.4308  170.7054 O.2     1  UNL1        0.0432
     13 O         140.6353  142.0120  171.8601 O.co2   1  UNL1       -0.5746
     14 C         138.9648  138.3463  165.1494 C.3     1  UNL1        0.2450
     15 O         138.4677  138.7320  163.7877 O.3     1  UNL1       -0.4717
     16 C         138.3955  140.1786  163.3975 C.ar    1  UNL1        0.1389
     17 C         138.8063  140.6051  162.0194 C.ar    1  UNL1        0.0400
     18 C         138.7340  142.0516  161.6292 C.ar    1  UNL1        0.0403
     19 C         138.2509  143.0717  162.6173 C.ar    1  UNL1        0.1470
     20 C         137.8401  142.6452  163.9954 C.ar    1  UNL1        0.0403
     21 C         137.9124  141.1986  164.3856 C.ar    1  UNL1        0.0400
     22 O         138.1786  144.5182  162.2271 O.3     1  UNL1       -0.4045
     23 C         139.4009  145.3825  162.3213 C.3     1  UNL1        0.5753
     24 F         140.6233  146.2468  162.4154 F       1  UNL1       -0.1328
     25 F         139.2203  145.4762  163.8074 F       1  UNL1       -0.1328
     26 F         139.5816  145.2889  160.8351 F       1  UNL1       -0.1328
@<TRIPOS>UNITY_ATOM_ATTR
11 1
charge 1
13 1
charge -1
@<TRIPOS>BOND
     1     2     1    1
     2     2    14    1
     3    14    15    1
     4    15    16    1
     5    16    17   ar
     6    17    18   ar
     7    18    19   ar
     8    19    22    1
     9    22    23    1
    10    23    24    1
    11    23    25    1
    12    23    26    1
    13    19    20   ar
    14    20    21   ar
    15     2     3    1
    16     3     4    1
    17     4     5    1
    18     5     6   ar
    19     6     7   ar
    20     7    11    1
    21    11    12    2
    22    11    13    1
    23     7     8   ar
    24     8     9   ar
    25     9    10    1
    26    10     2    1
    27    21    16   ar
    28     9     5   ar
@<TRIPOS>MOLECULE
*****
 26 28 0 0 0
SMALL
GASTEIGER

@<TRIPOS>ATOM
      1 C         137.5643  143.7142  163.4256 C.3     1  UNL1        0.0477
      2 C         138.4932  143.2825  164.5214 C.3     1  UNL1        0.1780
      3 C         137.8575  141.9662  164.1852 C.3     1  UNL1        0.0685
      4 C         138.2595  140.7274  164.9294 C.3     1  UNL1        0.1145
      5 N         139.2972  140.8051  166.0098 N.ar    1  UNL1       -0.2749
      6 C         139.8913  139.7606  166.9078 C.ar    1  UNL1        0.1779
      7 C         140.8941  140.4315  167.7989 C.ar    1  UNL1        0.3976
      8 N         140.9198  141.8906  167.4517 N.ar    1  UNL1       -0.1275
      9 C         139.9329  142.1214  166.3460 C.ar    1  UNL1        0.3057
     10 O         139.5309  143.3602  165.6018 O.3     1  UNL1       -0.4512
     11 N         141.7253  139.7611  168.8524 N.pl3   1  UNL1        0.1030
     12 O         141.3222  139.8492  170.2945 O.2     1  UNL1        0.0432
     13 O         142.9597  139.0026  168.4636 O.co2   1  UNL1       -0.5746
     14 C         138.8063  144.7488  164.4770 C.3     1  UNL1        0.2450
     15 O         139.7235  145.2883  163.4199 O.3     1  UNL1       -0.4717
     16 C         141.0649  144.6553  163.1964 C.ar    1  UNL1        0.1389
     17 C         141.1738  143.3919  162.3952 C.ar    1  UNL1        0.0400
     18 C         142.5151  142.7588  162.1717 C.ar    1  UNL1        0.0403
     19 C         143.7476  143.3892  162.7494 C.ar    1  UNL1        0.1470
     20 C         143.6387  144.6525  163.5506 C.ar    1  UNL1        0.0403
     21 C         142.2974  145.2856  163.7741 C.ar    1  UNL1        0.0400
     22 O         145.0890  142.7561  162.5259 O.3     1  UNL1       -0.4045
     23 C         145.4569  141.4998  163.2583 C.3     1  UNL1        0.5753
     24 F         145.8248  140.2434  163.9906 F       1  UNL1       -0.1328
     25 F         145.8476  142.3128  164.4567 F       1  UNL1       -0.1328
     26 F         145.0662  140.6867  162.0597 F       1  UNL1       -0.1328
@<TRIPOS>UNITY_ATOM_ATTR
11 1
charge 1
13 1
charge -1
@<TRIPOS>BOND
     1     2     1    1
     2     2    14    1
     3    14    15    1
     4    15    16    1
     5    16    17   ar
     6    17    18   ar
     7    18    19   ar
     8    19    22    1
     9    22    23    1
    10    23    24    1
    11    23    25    1
    12    23    26    1
    13    19    20   ar
    14    20    21   ar
    15     2     3    1
    16     3     4    1
    17     4     5    1
    18     5     6   ar
    19     6     7   ar
    20     7    11    1
    21    11    12    2
    22    11    13    1
    23     7     8   ar
    24     8     9   ar
    25     9    10    1
    26    10     2    1
    27    21    16   ar
    28     9     5   ar
@<TRIPOS>MOLECULE
*****
 26 28 0 0 0
SMALL
GASTEIGER

@<TRIPOS>ATOM
      1 C         140.9396  137.7811  162.8399 C.3     1  UNL1        0.0477
      2 C         140.2190  138.1927  164.0894 C.3     1  UNL1        0.1780
      3 C         141.6181  138.5944  164.4513 C.3     1  UNL1        0.0685
      4 C         141.8976  139.2186  165.7863 C.3     1  UNL1        0.1145
      5 N         140.7779  139.4410  166.7594 N.ar    1  UNL1       -0.2749
      6 C         140.7490  140.0301  168.1386 C.ar    1  UNL1        0.1779
      7 C         139.3319  139.9924  168.6291 C.ar    1  UNL1        0.3976
      8 N         138.4851  139.3801  167.5529 N.ar    1  UNL1       -0.1275
      9 C         139.3788  139.0393  166.3974 C.ar    1  UNL1        0.3057
     10 O         139.0993  138.4152  165.0624 O.3     1  UNL1       -0.4512
     11 N         138.8468  140.4812  169.9617 N.pl3   1  UNL1        0.1030
     12 O         139.3948  141.7525  170.5391 O.2     1  UNL1        0.0432
     13 O         137.8136  139.6987  170.7168 O.co2   1  UNL1       -0.5746
     14 C         139.0701  137.6481  163.2935 C.3     1  UNL1        0.2450
     15 O         138.5959  138.3725  162.0686 O.3     1  UNL1       -0.4717
     16 C         138.4838  139.8683  162.0781 C.ar    1  UNL1        0.1389
     17 C         139.2641  140.6851  161.0913 C.ar    1  UNL1        0.0400
     18 C         139.1521  142.1809  161.1008 C.ar    1  UNL1        0.0403
     19 C         138.2597  142.8598  162.0972 C.ar    1  UNL1        0.1470
     20 C         137.4794  142.0430  163.0840 C.ar    1  UNL1        0.0403
     21 C         137.5914  140.5472  163.0745 C.ar    1  UNL1        0.0400
     22 O         138.1476  144.3556  162.1066 O.3     1  UNL1       -0.4045
     23 C         139.3354  145.1944  162.4747 C.3     1  UNL1        0.5753
     24 F         140.5232  146.0333  162.8427 F       1  UNL1       -0.1328
     25 F         139.0712  144.9312  163.9276 F       1  UNL1       -0.1328
     26 F         139.5997  145.4577  161.0218 F       1  UNL1       -0.1328
@<TRIPOS>UNITY_ATOM_ATTR
11 1
charge 1
13 1
charge -1
@<TRIPOS>BOND
     1     2     1    1
     2     2    14    1
     3    14    15    1
     4    15    16    1
     5    16    17   ar
     6    17    18   ar
     7    18    19   ar
     8    19    22    1
     9    22    23    1
    10    23    24    1
    11    23    25    1
    12    23    26    1
    13    19    20   ar
    14    20    21   ar
    15     2     3    1
    16     3     4    1
    17     4     5    1
    18     5     6   ar
    19     6     7   ar
    20     7    11    1
    21    11    12    2
    22    11    13    1
    23     7     8   ar
    24     8     9   ar
    25     9    10    1
    26    10     2    1
    27    21    16   ar
    28     9     5   ar
@<TRIPOS>MOLECULE
*****
 26 28 0 0 0
SMALL
GASTEIGER

@<TRIPOS>ATOM
      1 C         144.7977  140.9821  164.3667 C.3     1  UNL1        0.0477
      2 C         144.5592  140.6333  162.9274 C.3     1  UNL1        0.1780
      3 C         143.8772  139.4747  163.5925 C.3     1  UNL1        0.0685
      4 C         143.2224  138.4119  162.7609 C.3     1  UNL1        0.1145
      5 N         143.2496  138.5077  161.2642 N.ar    1  UNL1       -0.2749
      6 C         142.6942  137.6185  160.1913 C.ar    1  UNL1        0.1779
      7 C         143.0331  138.2277  158.8631 C.ar    1  UNL1        0.3976
      8 N         143.7978  139.4932  159.1152 N.ar    1  UNL1       -0.1275
      9 C         143.9317  139.6663  160.5991 C.ar    1  UNL1        0.3057
     10 O         144.5865  140.7291  161.4307 O.3     1  UNL1       -0.4512
     11 N         142.6707  137.6693  157.5188 N.pl3   1  UNL1        0.1030
     12 O         143.7344  137.4598  156.4823 O.2     1  UNL1        0.0432
     13 O         141.2446  137.3205  157.2112 O.co2   1  UNL1       -0.5746
     14 C         145.3241  141.9130  162.7621 C.3     1  UNL1        0.2450
     15 O         144.7673  143.0150  161.9103 O.3     1  UNL1       -0.4717
     16 C         143.4229  143.6006  162.2258 C.ar    1  UNL1        0.1389
     17 C         142.2369  143.2582  161.3737 C.ar    1  UNL1        0.0400
     18 C         140.8925  143.8438  161.6892 C.ar    1  UNL1        0.0403
     19 C         140.7341  144.7719  162.8569 C.ar    1  UNL1        0.1470
     20 C         141.9201  145.1144  163.7091 C.ar    1  UNL1        0.0403
     21 C         143.2645  144.5288  163.3935 C.ar    1  UNL1        0.0400
     22 O         139.3897  145.3576  163.1725 O.3     1  UNL1       -0.4045
     23 C         138.4226  144.5966  164.0302 C.3     1  UNL1        0.5753
     24 F         137.4556  143.8357  164.8881 F       1  UNL1       -0.1328
     25 F         137.8084  143.9929  162.8022 F       1  UNL1       -0.1328
     26 F         139.0369  145.2004  165.2583 F       1  UNL1       -0.1328
@<TRIPOS>UNITY_ATOM_ATTR
11 1
charge 1
13 1
charge -1
@<TRIPOS>BOND
     1     2     1    1
     2     2    14    1
     3    14    15    1
     4    15    16    1
     5    16    17   ar
     6    17    18   ar
     7    18    19   ar
     8    19    22    1
     9    22    23    1
    10    23    24    1
    11    23    25    1
    12    23    26    1
    13    19    20   ar
    14    20    21   ar
    15     2     3    1
    16     3     4    1
    17     4     5    1
    18     5     6   ar
    19     6     7   ar
    20     7    11    1
    21    11    12    2
    22    11    13    1
    23     7     8   ar
    24     8     9   ar
    25     9    10    1
    26    10     2    1
    27    21    16   ar
    28     9     5   ar
@<TRIPOS>MOLECULE
*****
 26 28 0 0 0
SMALL
GASTEIGER

@<TRIPOS>ATOM
      1 C         144.8974  140.1542  163.2642 C.3     1  UNL1        0.0477
      2 C         144.3804  140.8686  164.4776 C.3     1  UNL1        0.1780
      3 C         143.6617  139.5598  164.6200 C.3     1  UNL1        0.0685
      4 C         142.7380  139.3338  165.7800 C.3     1  UNL1        0.1145
      5 N         142.5330  140.4167  166.7975 N.ar    1  UNL1       -0.2749
      6 C         141.6910  140.4828  168.0373 C.ar    1  UNL1        0.1779
      7 C         141.8894  141.8324  168.6609 C.ar    1  UNL1        0.3976
      8 N         142.8539  142.6005  167.8067 N.ar    1  UNL1       -0.1275
      9 C         143.2517  141.7256  166.6551 C.ar    1  UNL1        0.3057
     10 O         144.1754  141.9515  165.4951 O.3     1  UNL1       -0.4512
     11 N         141.2377  142.3272  169.9182 N.pl3   1  UNL1        0.1030
     12 O         141.3695  143.7679  170.3144 O.2     1  UNL1        0.0432
     13 O         140.4542  141.3813  170.7791 O.co2   1  UNL1       -0.5746
     14 C         145.2787  141.9294  163.9137 C.3     1  UNL1        0.2450
     15 O         144.7857  142.8233  162.8147 O.3     1  UNL1       -0.4717
     16 C         143.4194  143.4360  162.9022 C.ar    1  UNL1        0.1389
     17 C         142.2392  142.7250  162.3093 C.ar    1  UNL1        0.0400
     18 C         140.8729  143.3377  162.3967 C.ar    1  UNL1        0.0403
     19 C         140.6867  144.6615  163.0771 C.ar    1  UNL1        0.1470
     20 C         141.8668  145.3725  163.6700 C.ar    1  UNL1        0.0403
     21 C         143.2332  144.7598  163.5826 C.ar    1  UNL1        0.0400
     22 O         139.3203  145.2742  163.1646 O.3     1  UNL1       -0.4045
     23 C         138.2781  144.6596  164.0511 C.3     1  UNL1        0.5753
     24 F         137.2357  144.0449  164.9376 F       1  UNL1       -0.1328
     25 F         138.9602  145.2388  165.2549 F       1  UNL1       -0.1328
     26 F         137.5958  144.0803  162.8473 F       1  UNL1       -0.1328
@<TRIPOS>UNITY_ATOM_ATTR
11 1
charge 1
13 1
charge -1
@<TRIPOS>BOND
     1     2     1    1
     2     2    14    1
     3    14    15    1
     4    15    16    1
     5    16    17   ar
     6    17    18   ar
     7    18    19   ar
     8    19    22    1
     9    22    23    1
    10    23    24    1
    11    23    25    1
    12    23    26    1
    13    19    20   ar
    14    20    21   ar
    15     2     3    1
    16     3     4    1
    17     4     5    1
    18     5     6   ar
    19     6     7   ar
    20     7    11    1
    21    11    12    2
    22    11    13    1
    23     7     8   ar
    24     8     9   ar
    25     9    10    1
    26    10     2    1
    27    21    16   ar
    28     9     5   ar
@<TRIPOS>MOLECULE
*****
 26 28 0 0 0
SMALL
GASTEIGER

@<TRIPOS>ATOM
      1 C         142.9708  141.8283  167.7407 C.3     1  UNL1        0.0477
      2 C         142.1995  142.4917  166.6385 C.3     1  UNL1        0.1780
      3 C         143.5917  142.6179  166.0946 C.3     1  UNL1        0.0685
      4 C         143.8221  143.2837  164.7704 C.3     1  UNL1        0.1145
      5 N         142.6603  143.8232  163.9900 N.ar    1  UNL1       -0.2749
      6 C         142.5791  144.5241  162.6662 C.ar    1  UNL1        0.1779
      7 C         141.1367  144.8310  162.3920 C.ar    1  UNL1        0.3976
      8 N         140.3264  144.3199  163.5462 N.ar    1  UNL1       -0.1275
      9 C         141.2681  143.6970  164.5338 C.ar    1  UNL1        0.3057
     10 O         141.0377  143.0313  165.8581 O.3     1  UNL1       -0.4512
     11 N         140.5989  145.5270  161.1769 N.pl3   1  UNL1        0.1030
     12 O         141.3776  145.5072  159.8950 O.2     1  UNL1        0.0432
     13 O         139.2823  146.2426  161.2436 O.co2   1  UNL1       -0.5746
     14 C         141.0752  142.1351  167.5651 C.3     1  UNL1        0.2450
     15 O         140.6951  140.6979  167.7651 O.3     1  UNL1       -0.4717
     16 C         140.2181  139.8794  166.6021 C.ar    1  UNL1        0.1389
     17 C         138.7812  139.9463  166.1771 C.ar    1  UNL1        0.0400
     18 C         138.3041  139.1278  165.0141 C.ar    1  UNL1        0.0403
     19 C         139.2641  138.2423  164.2763 C.ar    1  UNL1        0.1470
     20 C         140.7010  138.1753  164.7014 C.ar    1  UNL1        0.0403
     21 C         141.1780  138.9938  165.8643 C.ar    1  UNL1        0.0400
     22 O         138.7870  137.4237  163.1133 O.3     1  UNL1       -0.4045
     23 C         138.7956  138.0073  161.7316 C.3     1  UNL1        0.5753
     24 F         138.8044  138.5909  160.3497 F       1  UNL1       -0.1328
     25 F         137.3508  138.3816  161.8805 F       1  UNL1       -0.1328
     26 F         140.2406  137.6331  161.5825 F       1  UNL1       -0.1328
@<TRIPOS>UNITY_ATOM_ATTR
11 1
charge 1
13 1
charge -1
@<TRIPOS>BOND
     1     2     1    1
     2     2    14    1
     3    14    15    1
     4    15    16    1
     5    16    17   ar
     6    17    18   ar
     7    18    19   ar
     8    19    22    1
     9    22    23    1
    10    23    24    1
    11    23    25    1
    12    23    26    1
    13    19    20   ar
    14    20    21   ar
    15     2     3    1
    16     3     4    1
    17     4     5    1
    18     5     6   ar
    19     6     7   ar
    20     7    11    1
    21    11    12    2
    22    11    13    1
    23     7     8   ar
    24     8     9   ar
    25     9    10    1
    26    10     2    1
    27    21    16   ar
    28     9     5   ar
@<TRIPOS>MOLECULE
*****
 26 28 0 0 0
SMALL
GASTEIGER

@<TRIPOS>ATOM
      1 C         145.7104  142.1363  162.8500 C.3     1  UNL1        0.0477
      2 C         144.4144  142.4228  163.5487 C.3     1  UNL1        0.1780
      3 C         144.2188  143.2263  162.2972 C.3     1  UNL1        0.0685
      4 C         142.9514  144.0026  162.0949 C.3     1  UNL1        0.1145
      5 N         141.8796  143.9755  163.1441 N.ar    1  UNL1       -0.2749
      6 C         140.5347  144.6352  163.2223 C.ar    1  UNL1        0.1779
      7 C         139.8992  144.2394  164.5220 C.ar    1  UNL1        0.3976
      8 N         140.8513  143.3351  165.2471 N.ar    1  UNL1       -0.1275
      9 C         142.0753  143.1720  164.3955 C.ar    1  UNL1        0.3057
     10 O         143.3427  142.3957  164.5978 O.3     1  UNL1       -0.4512
     11 N         138.5486  144.6719  165.0110 N.pl3   1  UNL1        0.1030
     12 O         138.4303  145.4842  166.2664 O.2     1  UNL1        0.0432
     13 O         137.3165  144.2921  164.2444 O.co2   1  UNL1       -0.5746
     14 C         145.0602  141.5198  164.5574 C.3     1  UNL1        0.2450
     15 O         145.1401  140.0441  164.3007 O.3     1  UNL1       -0.4717
     16 C         143.9033  139.2784  163.9346 C.ar    1  UNL1        0.1389
     17 C         142.9331  138.8661  165.0017 C.ar    1  UNL1        0.0400
     18 C         141.6963  138.1004  164.6357 C.ar    1  UNL1        0.0403
     19 C         141.4297  137.7470  163.2025 C.ar    1  UNL1        0.1470
     20 C         142.3998  138.1593  162.1354 C.ar    1  UNL1        0.0403
     21 C         143.6366  138.9251  162.5014 C.ar    1  UNL1        0.0400
     22 O         140.1929  136.9813  162.8364 O.3     1  UNL1       -0.4045
     23 C         138.9165  137.7131  162.5447 C.3     1  UNL1        0.5753
     24 F         137.6400  138.4450  162.2528 F       1  UNL1       -0.1328
     25 F         138.5428  137.6400  163.9955 F       1  UNL1       -0.1328
     26 F         139.2901  137.7864  161.0937 F       1  UNL1       -0.1328
@<TRIPOS>UNITY_ATOM_ATTR
11 1
charge 1
13 1
charge -1
@<TRIPOS>BOND
     1     2     1    1
     2     2    14    1
     3    14    15    1
     4    15    16    1
     5    16    17   ar
     6    17    18   ar
     7    18    19   ar
     8    19    22    1
     9    22    23    1
    10    23    24    1
    11    23    25    1
    12    23    26    1
    13    19    20   ar
    14    20    21   ar
    15     2     3    1
    16     3     4    1
    17     4     5    1
    18     5     6   ar
    19     6     7   ar
    20     7    11    1
    21    11    12    2
    22    11    13    1
    23     7     8   ar
    24     8     9   ar
    25     9    10    1
    26    10     2    1
    27    21    16   ar
    28     9     5   ar
@<TRIPOS>MOLECULE
*****
 26 28 0 0 0
SMALL
GASTEIGER

@<TRIPOS>ATOM
      1 C         145.0666  139.5260  164.3600 C.3     1  UNL1        0.0477
      2 C         143.8171  140.1871  163.8583 C.3     1  UNL1        0.1780
      3 C         144.7765  141.3360  163.7612 C.3     1  UNL1        0.0685
      4 C         144.3038  142.6671  163.2567 C.3     1  UNL1        0.1145
      5 N         142.8718  142.8493  162.8492 N.ar    1  UNL1       -0.2749
      6 C         142.1224  144.0355  162.3184 C.ar    1  UNL1        0.1779
      7 C         140.6999  143.6195  162.0875 C.ar    1  UNL1        0.3976
      8 N         140.5701  142.1764  162.4755 N.ar    1  UNL1       -0.1275
      9 C         141.9124  141.7004  162.9463 C.ar    1  UNL1        0.3057
     10 O         142.3851  140.3693  163.4508 O.3     1  UNL1       -0.4512
     11 N         139.6001  144.4933  161.5610 N.pl3   1  UNL1        0.1030
     12 O         138.2052  144.3451  162.0920 O.2     1  UNL1        0.0432
     13 O         139.8955  145.5152  160.5034 O.co2   1  UNL1       -0.5746
     14 C         143.2917  138.8085  164.1296 C.3     1  UNL1        0.2450
     15 O         141.9812  138.6312  164.8376 O.3     1  UNL1       -0.4717
     16 C         141.7209  139.3542  166.1258 C.ar    1  UNL1        0.1389
     17 C         140.4564  140.1416  166.3016 C.ar    1  UNL1        0.0400
     18 C         140.1960  140.8645  167.5899 C.ar    1  UNL1        0.0403
     19 C         141.2002  140.8000  168.7023 C.ar    1  UNL1        0.1470
     20 C         142.4647  140.0126  168.5265 C.ar    1  UNL1        0.0403
     21 C         142.7251  139.2897  167.2383 C.ar    1  UNL1        0.0400
     22 O         140.9398  141.5230  169.9905 O.3     1  UNL1       -0.4045
     23 C         140.6451  142.9937  169.9790 C.3     1  UNL1        0.5753
     24 F         140.3505  144.4645  169.9674 F       1  UNL1       -0.1328
     25 F         139.3052  142.7302  170.5996 F       1  UNL1       -0.1328
     26 F         141.9850  143.2573  169.3583 F       1  UNL1       -0.1328
@<TRIPOS>UNITY_ATOM_ATTR
11 1
charge 1
13 1
charge -1
@<TRIPOS>BOND
     1     2     1    1
     2     2    14    1
     3    14    15    1
     4    15    16    1
     5    16    17   ar
     6    17    18   ar
     7    18    19   ar
     8    19    22    1
     9    22    23    1
    10    23    24    1
    11    23    25    1
    12    23    26    1
    13    19    20   ar
    14    20    21   ar
    15     2     3    1
    16     3     4    1
    17     4     5    1
    18     5     6   ar
    19     6     7   ar
    20     7    11    1
    21    11    12    2
    22    11    13    1
    23     7     8   ar
    24     8     9   ar
    25     9    10    1
    26    10     2    1
    27    21    16   ar
    28     9     5   ar
@<TRIPOS>MOLECULE
*****
 26 28 0 0 0
SMALL
GASTEIGER

@<TRIPOS>ATOM
      1 C         139.2092  139.6645  167.6993 C.3     1  UNL1        0.0477
      2 C         139.0389  140.4580  166.4378 C.3     1  UNL1        0.1780
      3 C         140.0858  141.2834  167.1253 C.3     1  UNL1        0.0685
      4 C         140.6193  142.5198  166.4646 C.3     1  UNL1        0.1145
      5 N         140.1059  142.9309  165.1165 N.ar    1  UNL1       -0.2749
      6 C         140.4406  144.0907  164.2259 C.ar    1  UNL1        0.1779
      7 C         139.6004  143.9820  162.9881 C.ar    1  UNL1        0.3976
      8 N         138.7466  142.7552  163.1136 N.ar    1  UNL1       -0.1275
      9 C         139.0590  142.1055  164.4290 C.ar    1  UNL1        0.3057
     10 O         138.5255  140.8691  165.0897 O.3     1  UNL1       -0.4512
     11 N         139.6120  144.9333  161.8282 N.pl3   1  UNL1        0.1030
     12 O         139.9051  146.3870  162.0534 O.2     1  UNL1        0.0432
     13 O         139.3305  144.4307  160.4432 O.co2   1  UNL1       -0.5746
     14 C         138.0511  139.3571  166.1884 C.3     1  UNL1        0.2450
     15 O         138.5283  138.0104  165.7316 O.3     1  UNL1       -0.4717
     16 C         139.4565  137.9018  164.5583 C.ar    1  UNL1        0.1389
     17 C         138.9087  137.9418  163.1625 C.ar    1  UNL1        0.0400
     18 C         139.8369  137.8332  161.9891 C.ar    1  UNL1        0.0403
     19 C         141.3129  137.6847  162.2117 C.ar    1  UNL1        0.1470
     20 C         141.8606  137.6448  163.6075 C.ar    1  UNL1        0.0403
     21 C         140.9325  137.7534  164.7808 C.ar    1  UNL1        0.0400
     22 O         142.2410  137.5762  161.0383 O.3     1  UNL1       -0.4045
     23 C         143.4322  138.4823  160.9379 C.3     1  UNL1        0.5753
     24 F         144.6235  139.3883  160.8374 F       1  UNL1       -0.1328
     25 F         142.5389  139.6097  160.5127 F       1  UNL1       -0.1328
     26 F         144.3257  137.3548  161.3631 F       1  UNL1       -0.1328
@<TRIPOS>UNITY_ATOM_ATTR
11 1
charge 1
13 1
charge -1
@<TRIPOS>BOND
     1     2     1    1
     2     2    14    1
     3    14    15    1
     4    15    16    1
     5    16    17   ar
     6    17    18   ar
     7    18    19   ar
     8    19    22    1
     9    22    23    1
    10    23    24    1
    11    23    25    1
    12    23    26    1
    13    19    20   ar
    14    20    21   ar
    15     2     3    1
    16     3     4    1
    17     4     5    1
    18     5     6   ar
    19     6     7   ar
    20     7    11    1
    21    11    12    2
    22    11    13    1
    23     7     8   ar
    24     8     9   ar
    25     9    10    1
    26    10     2    1
    27    21    16   ar
    28     9     5   ar
