@<TRIPOS>MOLECULE
*****
 25 28 0 0 0
SMALL
GASTEIGER

@<TRIPOS>ATOM
      1 C         140.2088  142.8647  170.2585 C.ar    1  UNL1        0.1195
      2 C         140.7340  142.0678  171.4156 C.ar    1  UNL1        0.1196
      3 N         141.5858  140.8581  171.1682 N.ar    1  UNL1       -0.2379
      4 C         141.9125  140.4455  169.7636 C.ar    1  UNL1        0.1302
      5 C         142.7644  139.2359  169.5162 C.ar    1  UNL1        0.1477
      6 N         143.0911  138.8232  168.1116 N.ar    1  UNL1       -0.2295
      7 C         142.5659  139.6202  166.9543 C.ar    1  UNL1        0.0838
      8 C         141.7141  140.8298  167.2018 C.ar    1  UNL1        0.0397
      9 C         141.3874  141.2424  168.6065 C.ar    1  UNL1        0.1032
     10 N         140.5356  142.4520  168.8539 N.ar    1  UNL1       -0.2405
     11 C         142.8927  139.2075  165.5498 C.2     1  UNL1        0.0426
     12 C         142.0245  138.3793  164.6496 C.2     1  UNL1        0.1209
     13 N         142.7402  138.2105  163.3422 N.2     1  UNL1       -0.1510
     14 N         144.0507  138.9345  163.4344 N.2     1  UNL1       -0.1694
     15 C         144.1449  139.5507  164.7987 C.3     1  UNL1        0.1786
     16 N         143.2895  138.4389  170.6734 N.pl3   1  UNL1       -0.3168
     17 H         143.3171  138.8373  171.5732 H       1  UNL1        0.1482
     18 C         143.7726  137.0351  170.4595 C.3     1  UNL1        0.0895
     19 C         144.6484  136.3788  171.4853 C.3     1  UNL1        0.0353
     20 C         145.6830  137.1843  172.2140 C.3     1  UNL1        0.0045
     21 C         146.5588  136.5281  173.2397 C.3     1  UNL1        0.0172
     22 C         146.4001  135.0664  173.5370 C.3     1  UNL1        0.0686
     23 N         145.3656  134.2609  172.8083 N.3     1  UNL1       -0.2974
     24 C         144.4897  134.9172  171.7825 C.3     1  UNL1        0.0702
     25 H         144.7458  133.8679  173.5167 H       1  UNL1        0.1232
@<TRIPOS>BOND
     1     1     2   ar
     2     2     3   ar
     3     3     4   ar
     4     4     5   ar
     5     5    16    1
     6    16    18    1
     7    19    18    1
     8    19    20    1
     9    20    21    1
    10    21    22    1
    11    22    23    1
    12    23    24    1
    13     5     6   ar
    14     6     7   ar
    15     7    11    1
    16    11    12    2
    17    12    13    1
    18    13    14    2
    19    14    15    1
    20     7     8   ar
    21     8     9   ar
    22     9    10   ar
    23    10     1   ar
    24     9     4   ar
    25    24    19    1
    26    15    11    1
    27    16    17    1
    28    23    25    1
@<TRIPOS>MOLECULE
*****
 25 28 0 0 0
SMALL
GASTEIGER

@<TRIPOS>ATOM
      1 C         138.2482  143.0276  162.4268 C.ar    1  UNL1        0.1195
      2 C         137.5434  141.7041  162.4660 C.ar    1  UNL1        0.1196
      3 N         137.7121  140.7993  163.6505 N.ar    1  UNL1       -0.2379
      4 C         138.5856  141.2180  164.7957 C.ar    1  UNL1        0.1302
      5 C         138.7543  140.3133  165.9802 C.ar    1  UNL1        0.1477
      6 N         139.6278  140.7320  167.1254 N.ar    1  UNL1       -0.2295
      7 C         140.3326  142.0555  167.0863 C.ar    1  UNL1        0.0838
      8 C         140.1639  142.9603  165.9018 C.ar    1  UNL1        0.0397
      9 C         139.2904  142.5415  164.7565 C.ar    1  UNL1        0.1032
     10 N         139.1217  143.4463  163.5721 N.ar    1  UNL1       -0.2405
     11 C         141.2061  142.4743  168.2315 C.2     1  UNL1        0.0426
     12 C         142.6760  142.2057  168.3635 C.2     1  UNL1        0.1209
     13 N         143.1414  142.8005  169.6594 N.2     1  UNL1       -0.1510
     14 N         141.9591  143.4368  170.3284 N.2     1  UNL1       -0.1694
     15 C         140.7631  143.2351  169.4459 C.3     1  UNL1        0.1786
     16 N         138.0495  138.9898  166.0194 N.pl3   1  UNL1       -0.3168
     17 H         137.1103  138.9407  166.3104 H       1  UNL1        0.1482
     18 C         138.7757  137.7410  165.6153 C.3     1  UNL1        0.0895
     19 C         139.7248  137.7679  164.4540 C.3     1  UNL1        0.0353
     20 C         141.1975  137.9236  164.6925 C.3     1  UNL1        0.0045
     21 C         142.1466  137.9504  163.5312 C.3     1  UNL1        0.0172
     22 C         141.6230  137.8217  162.1315 C.3     1  UNL1        0.0686
     23 N         140.1503  137.6660  161.8930 N.3     1  UNL1       -0.2974
     24 C         139.2012  137.6391  163.0543 C.3     1  UNL1        0.0702
     25 H         140.0247  136.7877  161.3897 H       1  UNL1        0.1232
@<TRIPOS>BOND
     1     1     2   ar
     2     2     3   ar
     3     3     4   ar
     4     4     5   ar
     5     5    16    1
     6    16    18    1
     7    19    18    1
     8    19    20    1
     9    20    21    1
    10    21    22    1
    11    22    23    1
    12    23    24    1
    13     5     6   ar
    14     6     7   ar
    15     7    11    1
    16    11    12    2
    17    12    13    1
    18    13    14    2
    19    14    15    1
    20     7     8   ar
    21     8     9   ar
    22     9    10   ar
    23    10     1   ar
    24     9     4   ar
    25    24    19    1
    26    15    11    1
    27    16    17    1
    28    23    25    1
@<TRIPOS>MOLECULE
*****
 25 28 0 0 0
SMALL
GASTEIGER

@<TRIPOS>ATOM
      1 C         144.3592  141.7545  163.6973 C.ar    1  UNL1        0.1195
      2 C         143.2999  141.0226  162.9278 C.ar    1  UNL1        0.1196
      3 N         142.0326  140.6015  163.6108 N.ar    1  UNL1       -0.2379
      4 C         141.8245  140.9122  165.0634 C.ar    1  UNL1        0.1302
      5 C         140.5572  140.4911  165.7465 C.ar    1  UNL1        0.1477
      6 N         140.3492  140.8019  167.1991 N.ar    1  UNL1       -0.2295
      7 C         141.4085  141.5338  167.9687 C.ar    1  UNL1        0.0838
      8 C         142.6758  141.9549  167.2857 C.ar    1  UNL1        0.0397
      9 C         142.8838  141.6441  165.8330 C.ar    1  UNL1        0.1032
     10 N         144.1511  142.0652  165.1499 N.ar    1  UNL1       -0.2405
     11 C         141.2005  141.8445  169.4213 C.2     1  UNL1        0.0426
     12 C         142.2466  141.7838  170.4946 C.2     1  UNL1        0.1209
     13 N         141.6025  142.1723  171.7923 N.2     1  UNL1       -0.1510
     14 N         140.1582  142.4731  171.5211 N.2     1  UNL1       -0.1694
     15 C         139.9097  142.2705  170.0557 C.3     1  UNL1        0.1786
     16 N         139.4979  139.7592  164.9770 N.pl3   1  UNL1       -0.3168
     17 H         139.6866  138.8668  164.6065 H       1  UNL1        0.1482
     18 C         138.1512  140.3870  164.7718 C.3     1  UNL1        0.0895
     19 C         138.0436  141.7384  164.1297 C.3     1  UNL1        0.0353
     20 C         138.3099  142.9751  164.9357 C.3     1  UNL1        0.0045
     21 C         138.2023  144.3264  164.2937 C.3     1  UNL1        0.0172
     22 C         137.8284  144.4411  162.8455 C.3     1  UNL1        0.0686
     23 N         137.5621  143.2044  162.0394 N.3     1  UNL1       -0.2974
     24 C         137.6697  141.8531  162.6816 C.3     1  UNL1        0.0702
     25 H         138.2203  143.2134  161.2602 H       1  UNL1        0.1232
@<TRIPOS>BOND
     1     1     2   ar
     2     2     3   ar
     3     3     4   ar
     4     4     5   ar
     5     5    16    1
     6    16    18    1
     7    19    18    1
     8    19    20    1
     9    20    21    1
    10    21    22    1
    11    22    23    1
    12    23    24    1
    13     5     6   ar
    14     6     7   ar
    15     7    11    1
    16    11    12    2
    17    12    13    1
    18    13    14    2
    19    14    15    1
    20     7     8   ar
    21     8     9   ar
    22     9    10   ar
    23    10     1   ar
    24     9     4   ar
    25    24    19    1
    26    15    11    1
    27    16    17    1
    28    23    25    1
@<TRIPOS>MOLECULE
*****
 25 28 0 0 0
SMALL
GASTEIGER

@<TRIPOS>ATOM
      1 C         144.4549  142.5100  163.7313 C.ar    1  UNL1        0.1195
      2 C         143.2446  142.7390  162.8754 C.ar    1  UNL1        0.1196
      3 N         141.8887  142.8482  163.5075 N.ar    1  UNL1       -0.2379
      4 C         141.7431  142.7283  164.9956 C.ar    1  UNL1        0.1302
      5 C         140.3872  142.8374  165.6277 C.ar    1  UNL1        0.1477
      6 N         140.2415  142.7175  167.1157 N.ar    1  UNL1       -0.2295
      7 C         141.4519  142.4884  167.9718 C.ar    1  UNL1        0.0838
      8 C         142.8078  142.3793  167.3396 C.ar    1  UNL1        0.0397
      9 C         142.9534  142.4992  165.8515 C.ar    1  UNL1        0.1032
     10 N         144.3093  142.3901  165.2194 N.ar    1  UNL1       -0.2405
     11 C         141.3063  142.3685  169.4598 C.2     1  UNL1        0.0426
     12 C         140.0177  142.4159  170.2263 C.2     1  UNL1        0.1209
     13 N         140.3387  142.2568  171.6829 N.2     1  UNL1       -0.1510
     14 N         141.8256  142.1111  171.8166 N.2     1  UNL1       -0.1694
     15 C         142.4236  142.1801  170.4427 C.3     1  UNL1        0.1786
     16 N         139.1769  143.0665  164.7718 N.pl3   1  UNL1       -0.3168
     17 H         139.0843  143.9051  164.2645 H       1  UNL1        0.1482
     18 C         138.1076  142.0177  164.6887 C.3     1  UNL1        0.0895
     19 C         138.4831  140.5664  164.6355 C.3     1  UNL1        0.0353
     20 C         138.1444  139.6616  165.7830 C.3     1  UNL1        0.0045
     21 C         138.5198  138.2104  165.7299 C.3     1  UNL1        0.0172
     22 C         139.2340  137.6638  164.5293 C.3     1  UNL1        0.0686
     23 N         139.5727  138.5686  163.3818 N.3     1  UNL1       -0.2974
     24 C         139.1972  140.0199  163.4350 C.3     1  UNL1        0.0702
     25 H         139.1207  138.1776  162.5552 H       1  UNL1        0.1232
@<TRIPOS>BOND
     1     1     2   ar
     2     2     3   ar
     3     3     4   ar
     4     4     5   ar
     5     5    16    1
     6    16    18    1
     7    19    18    1
     8    19    20    1
     9    20    21    1
    10    21    22    1
    11    22    23    1
    12    23    24    1
    13     5     6   ar
    14     6     7   ar
    15     7    11    1
    16    11    12    2
    17    12    13    1
    18    13    14    2
    19    14    15    1
    20     7     8   ar
    21     8     9   ar
    22     9    10   ar
    23    10     1   ar
    24     9     4   ar
    25    24    19    1
    26    15    11    1
    27    16    17    1
    28    23    25    1
@<TRIPOS>MOLECULE
*****
 25 28 0 0 0
SMALL
GASTEIGER

@<TRIPOS>ATOM
      1 C         138.8911  138.1316  163.9702 C.ar    1  UNL1        0.1195
      2 C         139.7985  138.9075  163.0623 C.ar    1  UNL1        0.1196
      3 N         140.6576  140.0040  163.6189 N.ar    1  UNL1       -0.2379
      4 C         140.6091  140.3246  165.0834 C.ar    1  UNL1        0.1302
      5 C         141.4681  141.4211  165.6401 C.ar    1  UNL1        0.1477
      6 N         141.4196  141.7416  167.1046 N.ar    1  UNL1       -0.2295
      7 C         140.5121  140.9656  168.0126 C.ar    1  UNL1        0.0838
      8 C         139.6531  139.8691  167.4559 C.ar    1  UNL1        0.0397
      9 C         139.7016  139.5486  165.9913 C.ar    1  UNL1        0.1032
     10 N         138.8426  138.4521  165.4347 N.ar    1  UNL1       -0.2405
     11 C         140.4636  141.2862  169.4771 C.2     1  UNL1        0.0426
     12 C         140.0166  142.5843  170.0812 C.2     1  UNL1        0.1209
     13 N         140.1304  142.4653  171.5721 N.2     1  UNL1       -0.1510
     14 N         140.6477  141.0935  171.8894 N.2     1  UNL1       -0.1694
     15 C         140.8537  140.3648  170.5946 C.3     1  UNL1        0.1786
     16 N         142.3756  142.1970  164.7321 N.pl3   1  UNL1       -0.3168
     17 H         143.2459  141.8208  164.4673 H       1  UNL1        0.1482
     18 C         141.9569  143.5462  164.2277 C.3     1  UNL1        0.0895
     19 C         140.5249  143.7978  163.8589 C.3     1  UNL1        0.0353
     20 C         139.5406  144.2116  164.9125 C.3     1  UNL1        0.0045
     21 C         138.1087  144.4632  164.5438 C.3     1  UNL1        0.0172
     22 C         137.6608  144.3010  163.1213 C.3     1  UNL1        0.0686
     23 N         138.6450  143.8873  162.0677 N.3     1  UNL1       -0.2974
     24 C         140.0771  143.6356  162.4365 C.3     1  UNL1        0.0702
     25 H         138.6478  144.6236  161.3619 H       1  UNL1        0.1232
@<TRIPOS>BOND
     1     1     2   ar
     2     2     3   ar
     3     3     4   ar
     4     4     5   ar
     5     5    16    1
     6    16    18    1
     7    19    18    1
     8    19    20    1
     9    20    21    1
    10    21    22    1
    11    22    23    1
    12    23    24    1
    13     5     6   ar
    14     6     7   ar
    15     7    11    1
    16    11    12    2
    17    12    13    1
    18    13    14    2
    19    14    15    1
    20     7     8   ar
    21     8     9   ar
    22     9    10   ar
    23    10     1   ar
    24     9     4   ar
    25    24    19    1
    26    15    11    1
    27    16    17    1
    28    23    25    1
@<TRIPOS>MOLECULE
*****
 25 28 0 0 0
SMALL
GASTEIGER

@<TRIPOS>ATOM
      1 C         138.8599  138.0840  164.0304 C.ar    1  UNL1        0.1195
      2 C         139.8709  138.7390  163.1366 C.ar    1  UNL1        0.1196
      3 N         140.8025  139.7756  163.6913 N.ar    1  UNL1       -0.2379
      4 C         140.7230  140.1572  165.1398 C.ar    1  UNL1        0.1302
      5 C         141.6546  141.1938  165.6944 C.ar    1  UNL1        0.1477
      6 N         141.5752  141.5754  167.1429 N.ar    1  UNL1       -0.2295
      7 C         140.5642  140.9204  168.0367 C.ar    1  UNL1        0.0838
      8 C         139.6326  139.8838  167.4821 C.ar    1  UNL1        0.0397
      9 C         139.7121  139.5022  166.0335 C.ar    1  UNL1        0.1032
     10 N         138.7805  138.4656  165.4788 N.ar    1  UNL1       -0.2405
     11 C         140.4848  141.3019  169.4852 C.2     1  UNL1        0.0426
     12 C         140.8623  140.4327  170.6479 C.2     1  UNL1        0.1209
     13 N         140.6247  141.2133  171.9066 N.2     1  UNL1       -0.1510
     14 N         140.1004  142.5650  171.5217 N.2     1  UNL1       -0.1694
     15 C         140.0139  142.6197  170.0252 C.3     1  UNL1        0.1786
     16 N         142.6656  141.8488  164.8007 N.pl3   1  UNL1       -0.3168
     17 H         143.2687  141.2968  164.2523 H       1  UNL1        0.1482
     18 C         142.7576  143.3448  164.7424 C.3     1  UNL1        0.0895
     19 C         141.9479  144.1074  163.7359 C.3     1  UNL1        0.0353
     20 C         140.5198  144.4575  164.0322 C.3     1  UNL1        0.0045
     21 C         139.7101  145.2200  163.0257 C.3     1  UNL1        0.0172
     22 C         140.3286  145.6325  161.7229 C.3     1  UNL1        0.0686
     23 N         141.7568  145.2824  161.4266 N.3     1  UNL1       -0.2974
     24 C         142.5664  144.5198  162.4331 C.3     1  UNL1        0.0702
     25 H         142.2468  146.1613  161.2594 H       1  UNL1        0.1232
@<TRIPOS>BOND
     1     1     2   ar
     2     2     3   ar
     3     3     4   ar
     4     4     5   ar
     5     5    16    1
     6    16    18    1
     7    19    18    1
     8    19    20    1
     9    20    21    1
    10    21    22    1
    11    22    23    1
    12    23    24    1
    13     5     6   ar
    14     6     7   ar
    15     7    11    1
    16    11    12    2
    17    12    13    1
    18    13    14    2
    19    14    15    1
    20     7     8   ar
    21     8     9   ar
    22     9    10   ar
    23    10     1   ar
    24     9     4   ar
    25    24    19    1
    26    15    11    1
    27    16    17    1
    28    23    25    1
@<TRIPOS>MOLECULE
*****
 25 28 0 0 0
SMALL
GASTEIGER

@<TRIPOS>ATOM
      1 C         139.8772  143.5638  163.3603 C.ar    1  UNL1        0.1195
      2 C         140.8101  142.5594  162.7512 C.ar    1  UNL1        0.1196
      3 N         141.6263  141.6622  163.6337 N.ar    1  UNL1       -0.2379
      4 C         141.5096  141.7693  165.1253 C.ar    1  UNL1        0.1302
      5 C         142.3258  140.8720  166.0078 C.ar    1  UNL1        0.1477
      6 N         142.2092  140.9791  167.4993 N.ar    1  UNL1       -0.2295
      7 C         141.2763  141.9835  168.1085 C.ar    1  UNL1        0.0838
      8 C         140.4601  142.8808  167.2260 C.ar    1  UNL1        0.0397
      9 C         140.5768  142.7736  165.7344 C.ar    1  UNL1        0.1032
     10 N         139.7606  143.6709  164.8519 N.ar    1  UNL1       -0.2405
     11 C         141.1596  142.0906  169.6001 C.2     1  UNL1        0.0426
     12 C         142.2971  142.0641  170.5776 C.2     1  UNL1        0.1209
     13 N         141.7255  142.2001  171.9578 N.2     1  UNL1       -0.1510
     14 N         140.2347  142.3108  171.8332 N.2     1  UNL1       -0.1694
     15 C         139.8851  142.2431  170.3761 C.3     1  UNL1        0.1786
     16 N         143.2586  139.8677  165.3987 N.pl3   1  UNL1       -0.3168
     17 H         144.1658  140.1388  165.1289 H       1  UNL1        0.1482
     18 C         142.8093  138.4503  165.2006 C.3     1  UNL1        0.0895
     19 C         141.5652  138.1609  164.4142 C.3     1  UNL1        0.0353
     20 C         140.2268  138.1879  165.0910 C.3     1  UNL1        0.0045
     21 C         138.9827  137.8985  164.3047 C.3     1  UNL1        0.0172
     22 C         139.0769  137.5821  162.8414 C.3     1  UNL1        0.0686
     23 N         140.4152  137.5550  162.1646 N.3     1  UNL1       -0.2974
     24 C         141.6594  137.8445  162.9510 C.3     1  UNL1        0.0702
     25 H         140.3776  138.2405  161.4102 H       1  UNL1        0.1232
@<TRIPOS>BOND
     1     1     2   ar
     2     2     3   ar
     3     3     4   ar
     4     4     5   ar
     5     5    16    1
     6    16    18    1
     7    19    18    1
     8    19    20    1
     9    20    21    1
    10    21    22    1
    11    22    23    1
    12    23    24    1
    13     5     6   ar
    14     6     7   ar
    15     7    11    1
    16    11    12    2
    17    12    13    1
    18    13    14    2
    19    14    15    1
    20     7     8   ar
    21     8     9   ar
    22     9    10   ar
    23    10     1   ar
    24     9     4   ar
    25    24    19    1
    26    15    11    1
    27    16    17    1
    28    23    25    1
@<TRIPOS>MOLECULE
*****
 25 28 0 0 0
SMALL
GASTEIGER

@<TRIPOS>ATOM
      1 C         139.9993  143.5759  163.3739 C.ar    1  UNL1        0.1195
      2 C         139.3114  142.3582  162.8318 C.ar    1  UNL1        0.1196
      3 N         138.9906  141.2102  163.7425 N.ar    1  UNL1       -0.2379
      4 C         139.3578  141.2800  165.1951 C.ar    1  UNL1        0.1302
      5 C         139.0370  140.1320  166.1058 C.ar    1  UNL1        0.1477
      6 N         139.4042  140.2018  167.5584 N.ar    1  UNL1       -0.2295
      7 C         140.0921  141.4195  168.1005 C.ar    1  UNL1        0.0838
      8 C         140.4129  142.5675  167.1899 C.ar    1  UNL1        0.0397
      9 C         140.0457  142.4977  165.7372 C.ar    1  UNL1        0.1032
     10 N         140.3664  143.6457  164.8265 N.ar    1  UNL1       -0.2405
     11 C         140.4593  141.4893  169.5532 C.2     1  UNL1        0.0426
     12 C         140.0855  142.5864  170.5054 C.2     1  UNL1        0.1209
     13 N         140.6599  142.2494  171.8495 N.2     1  UNL1       -0.1510
     14 N         141.3887  140.9440  171.7279 N.2     1  UNL1       -0.1694
     15 C         141.2648  140.4742  170.3087 C.3     1  UNL1        0.1786
     16 N         138.3491  138.9143  165.5638 N.pl3   1  UNL1       -0.3168
     17 H         137.3715  138.9119  165.4476 H       1  UNL1        0.1482
     18 C         139.1507  137.7001  165.1987 C.3     1  UNL1        0.0895
     19 C         140.3519  137.8337  164.3102 C.3     1  UNL1        0.0353
     20 C         140.2153  137.6358  162.8296 C.3     1  UNL1        0.0045
     21 C         141.4164  137.7694  161.9411 C.3     1  UNL1        0.0172
     22 C         142.7542  138.1009  162.5332 C.3     1  UNL1        0.0686
     23 N         142.8908  138.2988  164.0138 N.3     1  UNL1       -0.2974
     24 C         141.6896  138.1652  164.9023 C.3     1  UNL1        0.0702
     25 H         143.2563  139.2409  164.1525 H       1  UNL1        0.1232
@<TRIPOS>BOND
     1     1     2   ar
     2     2     3   ar
     3     3     4   ar
     4     4     5   ar
     5     5    16    1
     6    16    18    1
     7    19    18    1
     8    19    20    1
     9    20    21    1
    10    21    22    1
    11    22    23    1
    12    23    24    1
    13     5     6   ar
    14     6     7   ar
    15     7    11    1
    16    11    12    2
    17    12    13    1
    18    13    14    2
    19    14    15    1
    20     7     8   ar
    21     8     9   ar
    22     9    10   ar
    23    10     1   ar
    24     9     4   ar
    25    24    19    1
    26    15    11    1
    27    16    17    1
    28    23    25    1
@<TRIPOS>MOLECULE
*****
 25 28 0 0 0
SMALL
GASTEIGER

@<TRIPOS>ATOM
      1 C         138.7681  138.4838  164.1286 C.ar    1  UNL1        0.1195
      2 C         138.6203  139.6177  163.1579 C.ar    1  UNL1        0.1196
      3 N         138.9242  141.0210  163.5920 N.ar    1  UNL1       -0.2379
      4 C         139.3761  141.2904  164.9967 C.ar    1  UNL1        0.1302
      5 C         139.6800  142.6937  165.4307 C.ar    1  UNL1        0.1477
      6 N         140.1318  142.9630  166.8354 N.ar    1  UNL1       -0.2295
      7 C         140.2797  141.8291  167.8062 C.ar    1  UNL1        0.0838
      8 C         139.9758  140.4258  167.3722 C.ar    1  UNL1        0.0397
      9 C         139.5239  140.1564  165.9674 C.ar    1  UNL1        0.1032
     10 N         139.2199  138.7532  165.5333 N.ar    1  UNL1       -0.2405
     11 C         140.7315  142.0984  169.2109 C.2     1  UNL1        0.0426
     12 C         142.0438  142.7028  169.6144 C.2     1  UNL1        0.1209
     13 N         142.0737  142.7886  171.1116 N.2     1  UNL1       -0.1510
     14 N         140.7799  142.2372  171.6335 N.2     1  UNL1       -0.1694
     15 C         139.9505  141.8107  170.4587 C.3     1  UNL1        0.1786
     16 N         139.5322  143.8276  164.4600 N.pl3   1  UNL1       -0.3168
     17 H         138.6947  143.9363  163.9539 H       1  UNL1        0.1482
     18 C         140.6602  144.7959  164.2604 C.3     1  UNL1        0.0895
     19 C         141.9188  144.3505  163.5765 C.3     1  UNL1        0.0353
     20 C         143.0754  143.8468  164.3881 C.3     1  UNL1        0.0045
     21 C         144.3339  143.4014  163.7044 C.3     1  UNL1        0.0172
     22 C         144.4360  143.4598  162.2089 C.3     1  UNL1        0.0686
     23 N         143.2795  143.9635  161.3973 N.3     1  UNL1       -0.2974
     24 C         142.0209  144.4089  162.0812 C.3     1  UNL1        0.0702
     25 H         143.0178  143.2118  160.7594 H       1  UNL1        0.1232
@<TRIPOS>BOND
     1     1     2   ar
     2     2     3   ar
     3     3     4   ar
     4     4     5   ar
     5     5    16    1
     6    16    18    1
     7    19    18    1
     8    19    20    1
     9    20    21    1
    10    21    22    1
    11    22    23    1
    12    23    24    1
    13     5     6   ar
    14     6     7   ar
    15     7    11    1
    16    11    12    2
    17    12    13    1
    18    13    14    2
    19    14    15    1
    20     7     8   ar
    21     8     9   ar
    22     9    10   ar
    23    10     1   ar
    24     9     4   ar
    25    24    19    1
    26    15    11    1
    27    16    17    1
    28    23    25    1
