@<TRIPOS>MOLECULE
*****
 33 36 0 0 0
SMALL
GASTEIGER

@<TRIPOS>ATOM
      1 N         140.9540  139.9689  165.8802 N.3     1  UNL1       -0.3217
      2 C         142.0214  140.9240  165.4349 C.3     1  UNL1        0.0597
      3 C         142.4542  140.9486  163.9989 C.3     1  UNL1        0.0464
      4 C         143.5217  141.9038  163.5535 C.2     1  UNL1        0.0285
      5 C         144.1563  142.8343  164.5443 C.2     1  UNL1       -0.0255
      6 C         143.7234  142.8096  165.9802 C.3     1  UNL1        0.0315
      7 C         142.6560  141.8545  166.4255 C.3     1  UNL1        0.0413
      8 H         140.6374  139.4171  165.0829 H       1  UNL1        0.1188
      9 H         140.1679  140.4928  166.2648 H       1  UNL1        0.1188
     10 C         143.9545  141.9284  162.1176 C.2     1  UNL1        0.2451
     11 O         145.1288  141.1073  161.6740 O.2     1  UNL1       -0.2703
     12 N         143.2130  142.7743  161.1251 N.am    1  UNL1       -0.2673
     13 C         143.6458  142.7989  159.6892 C.3     1  UNL1        0.1186
     14 C         142.9044  143.6447  158.6968 C.3     1  UNL1        0.1301
     15 N         141.7301  144.4659  159.1404 N.ar    1  UNL1       -0.2924
     16 C         141.2973  144.4412  160.5764 C.ar    1  UNL1        0.1636
     17 N         140.1116  145.3489  160.7188 N.ar    1  UNL1       -0.1316
     18 N         139.8116  145.9345  159.3708 N.ar    1  UNL1       -0.1249
     19 C         140.8119  145.3888  158.3953 C.ar    1  UNL1        0.2383
     20 C         142.0387  143.5954  161.5687 C.3     1  UNL1        0.1599
     21 C         140.8818  145.7097  156.9317 C.3     1  UNL1        0.4524
     22 F         140.9517  146.0305  155.4681 F       1  UNL1       -0.1632
     23 F         142.2019  146.3894  157.1438 F       1  UNL1       -0.1632
     24 F         139.5616  145.0299  156.7196 F       1  UNL1       -0.1632
     25 C         142.2232  141.8298  167.8615 C.ar    1  UNL1       -0.0163
     26 C         141.1654  142.7784  168.3424 C.ar    1  UNL1        0.0279
     27 C         140.7326  142.7537  169.7784 C.ar    1  UNL1        0.1693
     28 F         139.6748  143.7023  170.2593 F       1  UNL1       -0.2017
     29 C         141.3576  141.7805  170.7335 C.ar    1  UNL1        0.1946
     30 F         140.9247  141.7558  172.1694 F       1  UNL1       -0.1994
     31 C         142.4153  140.8319  170.2526 C.ar    1  UNL1        0.1693
     32 F         143.0403  139.8586  171.2076 F       1  UNL1       -0.2017
     33 C         142.8482  140.8565  168.8166 C.ar    1  UNL1        0.0279
@<TRIPOS>BOND
     1     2     1    1
     2     2     3    1
     3     3     4    1
     4     4    10    1
     5    10    11    2
     6    10    12   am
     7    12    13    1
     8    13    14    1
     9    14    15    1
    10    15    16   ar
    11    16    17   ar
    12    17    18   ar
    13    18    19   ar
    14    19    21    1
    15    21    22    1
    16    21    23    1
    17    21    24    1
    18    16    20    1
    19     4     5    2
    20     5     6    1
    21     6     7    1
    22     7    25    1
    23    25    26   ar
    24    26    27   ar
    25    27    28    1
    26    27    29   ar
    27    29    30    1
    28    29    31   ar
    29    31    32    1
    30    31    33   ar
    31     7     2    1
    32    33    25   ar
    33    20    12    1
    34    19    15   ar
    35     1     8    1
    36     1     9    1
@<TRIPOS>MOLECULE
*****
 33 36 0 0 0
SMALL
GASTEIGER

@<TRIPOS>ATOM
      1 N         141.0974  139.8356  165.9263 N.3     1  UNL1       -0.3217
      2 C         142.1109  140.8453  165.4754 C.3     1  UNL1        0.0597
      3 C         142.5443  140.8834  164.0398 C.3     1  UNL1        0.0464
      4 C         143.5578  141.8931  163.5889 C.2     1  UNL1        0.0285
      5 C         144.1380  142.8646  164.5736 C.2     1  UNL1       -0.0255
      6 C         143.7047  142.8265  166.0091 C.3     1  UNL1        0.0315
      7 C         142.6911  141.8168  166.4600 C.3     1  UNL1        0.0413
      8 H         140.8133  139.2613  165.1327 H       1  UNL1        0.1188
      9 H         140.2827  140.3179  166.3059 H       1  UNL1        0.1188
     10 C         143.9912  141.9312  162.1534 C.2     1  UNL1        0.2451
     11 O         145.1788  141.1309  161.7070 O.2     1  UNL1       -0.2703
     12 N         143.2370  142.7696  161.1643 N.am    1  UNL1       -0.2673
     13 C         143.6704  142.8078  159.7288 C.3     1  UNL1        0.1186
     14 C         142.9162  143.6462  158.7398 C.3     1  UNL1        0.1301
     15 N         141.7286  144.4464  159.1862 N.ar    1  UNL1       -0.2924
     16 C         141.2953  144.4083  160.6217 C.ar    1  UNL1        0.1636
     17 N         140.0952  145.2963  160.7674 N.ar    1  UNL1       -0.1316
     18 N         139.7868  145.8832  159.4218 N.ar    1  UNL1       -0.1249
     19 C         140.7963  145.3580  158.4446 C.ar    1  UNL1        0.2383
     20 C         142.0495  143.5699  161.6108 C.3     1  UNL1        0.1599
     21 C         140.8621  145.6866  156.9825 C.3     1  UNL1        0.4524
     22 F         140.9278  146.0152  155.5205 F       1  UNL1       -0.1632
     23 F         139.5500  144.9923  156.7676 F       1  UNL1       -0.1632
     24 F         142.1742  146.3810  157.1976 F       1  UNL1       -0.1632
     25 C         142.2578  141.7786  167.8955 C.ar    1  UNL1       -0.0163
     26 C         142.8956  140.8093  168.8460 C.ar    1  UNL1        0.0279
     27 C         142.4622  140.7712  170.2816 C.ar    1  UNL1        0.1693
     28 F         143.1001  139.8018  171.2321 F       1  UNL1       -0.2017
     29 C         141.3910  141.7024  170.7666 C.ar    1  UNL1        0.1946
     30 F         140.9576  141.6642  172.2021 F       1  UNL1       -0.1994
     31 C         140.7531  142.6717  169.8161 C.ar    1  UNL1        0.1693
     32 F         139.6819  143.6029  170.3010 F       1  UNL1       -0.2017
     33 C         141.1865  142.7099  168.3806 C.ar    1  UNL1        0.0279
@<TRIPOS>BOND
     1     2     1    1
     2     2     3    1
     3     3     4    1
     4     4    10    1
     5    10    11    2
     6    10    12   am
     7    12    13    1
     8    13    14    1
     9    14    15    1
    10    15    16   ar
    11    16    17   ar
    12    17    18   ar
    13    18    19   ar
    14    19    21    1
    15    21    22    1
    16    21    23    1
    17    21    24    1
    18    16    20    1
    19     4     5    2
    20     5     6    1
    21     6     7    1
    22     7    25    1
    23    25    26   ar
    24    26    27   ar
    25    27    28    1
    26    27    29   ar
    27    29    30    1
    28    29    31   ar
    29    31    32    1
    30    31    33   ar
    31     7     2    1
    32    33    25   ar
    33    20    12    1
    34    19    15   ar
    35     1     8    1
    36     1     9    1
@<TRIPOS>MOLECULE
*****
 33 36 0 0 0
SMALL
GASTEIGER

@<TRIPOS>ATOM
      1 N         141.3900  138.9057  165.2835 N.3     1  UNL1       -0.3217
      2 C         140.4721  140.0151  164.8631 C.3     1  UNL1        0.0597
      3 C         139.9282  140.0496  163.4656 C.3     1  UNL1        0.0464
      4 C         139.0102  141.1590  163.0453 C.2     1  UNL1        0.0285
      5 C         138.6361  142.2338  164.0225 C.2     1  UNL1       -0.0255
      6 C         139.1800  142.1992  165.4200 C.3     1  UNL1        0.0315
      7 C         140.0980  141.0898  165.8403 C.3     1  UNL1        0.0413
      8 H         141.5353  138.2692  164.4997 H       1  UNL1        0.1188
      9 H         140.9731  138.3962  166.0625 H       1  UNL1        0.1188
     10 C         138.4664  141.1936  161.6478 C.2     1  UNL1        0.2451
     11 O         137.3445  140.2779  161.2567 O.2     1  UNL1       -0.2703
     12 N         139.0444  142.1439  160.6413 N.am    1  UNL1       -0.2673
     13 C         138.5005  142.1785  159.2439 C.3     1  UNL1        0.1186
     14 C         139.0785  143.1288  158.2375 C.3     1  UNL1        0.1301
     15 N         140.2004  144.0444  158.6286 N.ar    1  UNL1       -0.2924
     16 C         140.7443  144.0098  160.0261 C.ar    1  UNL1        0.1636
     17 N         141.8457  145.0237  160.1200 N.ar    1  UNL1       -0.1316
     18 N         141.9826  145.6849  158.7806 N.ar    1  UNL1       -0.1249
     19 C         140.9658  145.0797  157.8588 C.ar    1  UNL1        0.2383
     20 C         140.1663  143.0596  161.0324 C.3     1  UNL1        0.1599
     21 C         140.7518  145.4455  156.4199 C.3     1  UNL1        0.4524
     22 F         140.5377  145.8114  154.9811 F       1  UNL1       -0.1632
     23 F         139.8222  146.5459  156.8380 F       1  UNL1       -0.1632
     24 F         141.6814  144.3451  156.0019 F       1  UNL1       -0.1632
     25 C         140.6418  141.0552  167.2378 C.ar    1  UNL1       -0.0163
     26 C         141.9609  141.6997  167.5454 C.ar    1  UNL1        0.0279
     27 C         142.5047  141.6651  168.9430 C.ar    1  UNL1        0.1693
     28 F         143.8238  142.3096  169.2506 F       1  UNL1       -0.2017
     29 C         141.7295  140.9860  170.0328 C.ar    1  UNL1        0.1946
     30 F         142.2734  140.9514  171.4303 F       1  UNL1       -0.1994
     31 C         140.4105  140.3415  169.7252 C.ar    1  UNL1        0.1693
     32 F         139.6352  139.6623  170.8150 F       1  UNL1       -0.2017
     33 C         139.8666  140.3761  168.3277 C.ar    1  UNL1        0.0279
@<TRIPOS>BOND
     1     2     1    1
     2     2     3    1
     3     3     4    1
     4     4    10    1
     5    10    11    2
     6    10    12   am
     7    12    13    1
     8    13    14    1
     9    14    15    1
    10    15    16   ar
    11    16    17   ar
    12    17    18   ar
    13    18    19   ar
    14    19    21    1
    15    21    22    1
    16    21    23    1
    17    21    24    1
    18    16    20    1
    19     4     5    2
    20     5     6    1
    21     6     7    1
    22     7    25    1
    23    25    26   ar
    24    26    27   ar
    25    27    28    1
    26    27    29   ar
    27    29    30    1
    28    29    31   ar
    29    31    32    1
    30    31    33   ar
    31     7     2    1
    32    33    25   ar
    33    20    12    1
    34    19    15   ar
    35     1     8    1
    36     1     9    1
@<TRIPOS>MOLECULE
*****
 33 36 0 0 0
SMALL
GASTEIGER

@<TRIPOS>ATOM
      1 N         142.2132  142.2745  165.6278 N.3     1  UNL1       -0.3217
      2 C         142.2452  140.9219  164.9801 C.3     1  UNL1        0.0597
      3 C         142.6120  140.7925  163.5314 C.3     1  UNL1        0.0464
      4 C         142.6440  139.4399  162.8838 C.2     1  UNL1        0.0285
      5 C         142.3090  138.2167  163.6849 C.2     1  UNL1       -0.0255
      6 C         141.9422  138.3462  165.1335 C.3     1  UNL1        0.0315
      7 C         141.9103  139.6988  165.7811 C.3     1  UNL1        0.0413
      8 H         142.4657  142.9860  164.9419 H       1  UNL1        0.1188
      9 H         142.8778  142.2969  166.4013 H       1  UNL1        0.1188
     10 C         143.0108  139.3105  161.4351 C.2     1  UNL1        0.2451
     11 O         144.4259  139.0023  161.0444 O.2     1  UNL1       -0.2703
     12 N         141.9626  139.4892  160.3771 N.am    1  UNL1       -0.2673
     13 C         142.3294  139.3598  158.9284 C.3     1  UNL1        0.1186
     14 C         141.2812  139.5385  157.8705 C.3     1  UNL1        0.1301
     15 N         139.8661  139.8467  158.2612 N.ar    1  UNL1       -0.2924
     16 C         139.4993  139.9761  159.7099 C.ar    1  UNL1        0.1636
     17 N         138.0334  140.2835  159.7911 N.ar    1  UNL1       -0.1316
     18 N         137.4942  140.3440  158.3927 N.ar    1  UNL1       -0.1249
     19 C         138.6269  140.0741  157.4471 C.ar    1  UNL1        0.2383
     20 C         140.5475  139.7974  160.7678 C.3     1  UNL1        0.1599
     21 C         138.5363  140.0378  155.9503 C.3     1  UNL1        0.4524
     22 F         138.4458  140.0015  154.4535 F       1  UNL1       -0.1632
     23 F         138.7668  138.5558  155.9723 F       1  UNL1       -0.1632
     24 F         138.3059  141.5198  155.9284 F       1  UNL1       -0.1632
     25 C         141.5434  139.8282  167.2298 C.ar    1  UNL1       -0.0163
     26 C         140.1070  139.9968  167.6276 C.ar    1  UNL1        0.0279
     27 C         139.7402  140.1263  169.0763 C.ar    1  UNL1        0.1693
     28 F         138.3038  140.2949  169.4741 F       1  UNL1       -0.2017
     29 C         140.8098  140.0871  170.1272 C.ar    1  UNL1        0.1946
     30 F         140.4429  140.2165  171.5758 F       1  UNL1       -0.1994
     31 C         142.2462  139.9184  169.7294 C.ar    1  UNL1        0.1693
     32 F         143.3158  139.8792  170.7803 F       1  UNL1       -0.2017
     33 C         142.6130  139.7890  168.2808 C.ar    1  UNL1        0.0279
@<TRIPOS>BOND
     1     2     1    1
     2     2     3    1
     3     3     4    1
     4     4    10    1
     5    10    11    2
     6    10    12   am
     7    12    13    1
     8    13    14    1
     9    14    15    1
    10    15    16   ar
    11    16    17   ar
    12    17    18   ar
    13    18    19   ar
    14    19    21    1
    15    21    22    1
    16    21    23    1
    17    21    24    1
    18    16    20    1
    19     4     5    2
    20     5     6    1
    21     6     7    1
    22     7    25    1
    23    25    26   ar
    24    26    27   ar
    25    27    28    1
    26    27    29   ar
    27    29    30    1
    28    29    31   ar
    29    31    32    1
    30    31    33   ar
    31     7     2    1
    32    33    25   ar
    33    20    12    1
    34    19    15   ar
    35     1     8    1
    36     1     9    1
@<TRIPOS>MOLECULE
*****
 33 36 0 0 0
SMALL
GASTEIGER

@<TRIPOS>ATOM
      1 N         138.0610  139.2038  166.5766 N.3     1  UNL1       -0.3217
      2 C         139.2857  139.4382  165.7428 C.3     1  UNL1        0.0597
      3 C         139.3770  138.8553  164.3637 C.3     1  UNL1        0.0464
      4 C         140.6016  139.0897  163.5299 C.2     1  UNL1        0.0285
      5 C         141.7350  139.9071  164.0752 C.2     1  UNL1       -0.0255
      6 C         141.6437  140.4901  165.4543 C.3     1  UNL1        0.0315
      7 C         140.4190  140.2556  166.2881 C.3     1  UNL1        0.0413
      8 H         137.3977  138.6323  166.0533 H       1  UNL1        0.1188
      9 H         137.6303  140.0991  166.8075 H       1  UNL1        0.1188
     10 C         140.6929  138.5068  162.1509 C.2     1  UNL1        0.2451
     11 O         141.3069  137.1533  161.9479 O.2     1  UNL1       -0.2703
     12 N         140.1703  139.2773  160.9748 N.am    1  UNL1       -0.2673
     13 C         140.2616  138.6944  159.5957 C.3     1  UNL1        0.1186
     14 C         139.7390  139.4649  158.4197 C.3     1  UNL1        0.1301
     15 N         139.1250  140.8184  158.6227 N.ar    1  UNL1       -0.2924
     16 C         139.0337  141.4013  160.0018 C.ar    1  UNL1        0.1636
     17 N         138.3814  142.7477  159.8936 N.ar    1  UNL1       -0.1316
     18 N         138.0695  142.9969  158.4477 N.ar    1  UNL1       -0.1249
     19 C         138.5291  141.8045  157.6622 C.ar    1  UNL1        0.2383
     20 C         139.5563  140.6308  161.1778 C.3     1  UNL1        0.1599
     21 C         138.4132  141.6290  156.1770 C.3     1  UNL1        0.4524
     22 F         138.2973  141.4536  154.6918 F       1  UNL1       -0.1632
     23 F         139.5607  142.5738  155.9759 F       1  UNL1       -0.1632
     24 F         137.2657  140.6842  156.3782 F       1  UNL1       -0.1632
     25 C         140.3277  140.8385  167.6671 C.ar    1  UNL1       -0.0163
     26 C         140.1697  139.9353  168.8542 C.ar    1  UNL1        0.0279
     27 C         140.0784  140.5183  170.2333 C.ar    1  UNL1        0.1693
     28 F         139.9204  139.6151  171.4205 F       1  UNL1       -0.2017
     29 C         140.1451  142.0045  170.4253 C.ar    1  UNL1        0.1946
     30 F         140.0538  142.5874  171.8043 F       1  UNL1       -0.1994
     31 C         140.3031  142.9077  169.2382 C.ar    1  UNL1        0.1693
     32 F         140.3699  144.3938  169.4301 F       1  UNL1       -0.2017
     33 C         140.3944  142.3248  167.8591 C.ar    1  UNL1        0.0279
@<TRIPOS>BOND
     1     2     1    1
     2     2     3    1
     3     3     4    1
     4     4    10    1
     5    10    11    2
     6    10    12   am
     7    12    13    1
     8    13    14    1
     9    14    15    1
    10    15    16   ar
    11    16    17   ar
    12    17    18   ar
    13    18    19   ar
    14    19    21    1
    15    21    22    1
    16    21    23    1
    17    21    24    1
    18    16    20    1
    19     4     5    2
    20     5     6    1
    21     6     7    1
    22     7    25    1
    23    25    26   ar
    24    26    27   ar
    25    27    28    1
    26    27    29   ar
    27    29    30    1
    28    29    31   ar
    29    31    32    1
    30    31    33   ar
    31     7     2    1
    32    33    25   ar
    33    20    12    1
    34    19    15   ar
    35     1     8    1
    36     1     9    1
@<TRIPOS>MOLECULE
*****
 33 36 0 0 0
SMALL
GASTEIGER

@<TRIPOS>ATOM
      1 N         141.9917  142.4621  165.6037 N.3     1  UNL1       -0.3217
      2 C         140.7959  141.6443  165.2149 C.3     1  UNL1        0.0597
      3 C         140.2959  141.6720  163.8009 C.3     1  UNL1        0.0464
      4 C         139.1001  140.8542  163.4121 C.2     1  UNL1        0.0285
      5 C         138.4041  140.0088  164.4374 C.2     1  UNL1       -0.0255
      6 C         138.9041  139.9811  165.8513 C.3     1  UNL1        0.0315
      7 C         140.0999  140.7989  166.2401 C.3     1  UNL1        0.0413
      8 H         142.3353  142.9706  164.7890 H       1  UNL1        0.1188
      9 H         142.7253  141.8462  165.9544 H       1  UNL1        0.1188
     10 C         138.6001  140.8818  161.9982 C.2     1  UNL1        0.2451
     11 O         137.3345  141.6145  161.6644 O.2     1  UNL1       -0.2703
     12 N         139.3658  140.1768  160.9180 N.am    1  UNL1       -0.2673
     13 C         138.8658  140.2044  159.5041 C.3     1  UNL1        0.1186
     14 C         139.6314  139.4993  158.4240 C.3     1  UNL1        0.1301
     15 N         140.8970  138.7666  158.7578 N.ar    1  UNL1       -0.2924
     16 C         141.3970  138.7390  160.1718 C.ar    1  UNL1        0.1636
     17 N         142.6668  137.9410  160.1989 N.ar    1  UNL1       -0.1316
     18 N         142.9516  137.4754  158.8017 N.ar    1  UNL1       -0.1249
     19 C         141.8579  137.9857  157.9111 C.ar    1  UNL1        0.2383
     20 C         140.6313  139.4441  161.2519 C.3     1  UNL1        0.1599
     21 C         141.7448  137.7554  156.4332 C.3     1  UNL1        0.4524
     22 F         141.6317  137.5253  154.9553 F       1  UNL1       -0.1632
     23 F         142.6164  138.9497  156.1805 F       1  UNL1       -0.1632
     24 F         140.8731  136.5612  156.6859 F       1  UNL1       -0.1632
     25 C         140.5999  140.7713  167.6540 C.ar    1  UNL1       -0.0163
     26 C         140.2157  141.8641  168.6069 C.ar    1  UNL1        0.0279
     27 C         140.7157  141.8365  170.0209 C.ar    1  UNL1        0.1693
     28 F         140.3314  142.9293  170.9738 F       1  UNL1       -0.2017
     29 C         141.5998  140.7159  170.4819 C.ar    1  UNL1        0.1946
     30 F         142.0998  140.6883  171.8959 F       1  UNL1       -0.1994
     31 C         141.9841  139.6231  169.5291 C.ar    1  UNL1        0.1693
     32 F         142.8683  138.5026  169.9901 F       1  UNL1       -0.2017
     33 C         141.4841  139.6507  168.1151 C.ar    1  UNL1        0.0279
@<TRIPOS>BOND
     1     2     1    1
     2     2     3    1
     3     3     4    1
     4     4    10    1
     5    10    11    2
     6    10    12   am
     7    12    13    1
     8    13    14    1
     9    14    15    1
    10    15    16   ar
    11    16    17   ar
    12    17    18   ar
    13    18    19   ar
    14    19    21    1
    15    21    22    1
    16    21    23    1
    17    21    24    1
    18    16    20    1
    19     4     5    2
    20     5     6    1
    21     6     7    1
    22     7    25    1
    23    25    26   ar
    24    26    27   ar
    25    27    28    1
    26    27    29   ar
    27    29    30    1
    28    29    31   ar
    29    31    32    1
    30    31    33   ar
    31     7     2    1
    32    33    25   ar
    33    20    12    1
    34    19    15   ar
    35     1     8    1
    36     1     9    1
@<TRIPOS>MOLECULE
*****
 33 36 0 0 0
SMALL
GASTEIGER

@<TRIPOS>ATOM
      1 N         141.0082  139.3468  161.3536 N.3     1  UNL1       -0.3217
      2 C         141.7175  139.2905  160.0331 C.3     1  UNL1        0.0597
      3 C         141.2239  138.3714  158.9552 C.3     1  UNL1        0.0464
      4 C         141.9332  138.3151  157.6347 C.2     1  UNL1        0.0285
      5 C         143.1361  139.1779  157.3921 C.2     1  UNL1       -0.0255
      6 C         143.6296  140.0969  158.4700 C.3     1  UNL1        0.0315
      7 C         142.9203  140.1532  159.7905 C.3     1  UNL1        0.0413
      8 H         140.2195  138.7001  161.3437 H       1  UNL1        0.1188
      9 H         140.6686  140.2946  161.5170 H       1  UNL1        0.1188
     10 C         141.4397  137.3961  156.5568 C.2     1  UNL1        0.2451
     11 O         140.4160  137.8772  155.5716 O.2     1  UNL1       -0.2703
     12 N         141.9699  135.9960  156.4641 N.am    1  UNL1       -0.2673
     13 C         141.4764  135.0770  155.3862 C.3     1  UNL1        0.1186
     14 C         142.0065  133.6769  155.2936 C.3     1  UNL1        0.1301
     15 N         143.0302  133.1958  156.2788 N.ar    1  UNL1       -0.2924
     16 C         143.5237  134.1148  157.3566 C.ar    1  UNL1        0.1636
     17 N         144.5294  133.3658  158.1798 N.ar    1  UNL1       -0.1316
     18 N         144.6575  131.9839  157.6106 N.ar    1  UNL1       -0.1249
     19 C         143.7309  131.8788  156.4357 C.ar    1  UNL1        0.2383
     20 C         142.9936  135.5149  157.4493 C.3     1  UNL1        0.1599
     21 C         143.5388  130.6691  155.5698 C.3     1  UNL1        0.4524
     22 F         143.3467  129.4595  154.7039 F       1  UNL1       -0.1632
     23 F         144.9526  130.7922  155.0843 F       1  UNL1       -0.1632
     24 F         142.1249  130.5461  156.0554 F       1  UNL1       -0.1632
     25 C         143.4138  141.0722  160.8683 C.ar    1  UNL1       -0.0163
     26 C         144.4512  140.5972  161.8421 C.ar    1  UNL1        0.0279
     27 C         144.9447  141.5162  162.9200 C.ar    1  UNL1        0.1693
     28 F         145.9821  141.0412  163.8937 F       1  UNL1       -0.2017
     29 C         144.4009  142.9103  163.0241 C.ar    1  UNL1        0.1946
     30 F         144.8944  143.8293  164.1020 F       1  UNL1       -0.1994
     31 C         143.3635  143.3853  162.0503 C.ar    1  UNL1        0.1693
     32 F         142.8196  144.7793  162.1544 F       1  UNL1       -0.2017
     33 C         142.8700  142.4663  160.9725 C.ar    1  UNL1        0.0279
@<TRIPOS>BOND
     1     2     1    1
     2     2     3    1
     3     3     4    1
     4     4    10    1
     5    10    11    2
     6    10    12   am
     7    12    13    1
     8    13    14    1
     9    14    15    1
    10    15    16   ar
    11    16    17   ar
    12    17    18   ar
    13    18    19   ar
    14    19    21    1
    15    21    22    1
    16    21    23    1
    17    21    24    1
    18    16    20    1
    19     4     5    2
    20     5     6    1
    21     6     7    1
    22     7    25    1
    23    25    26   ar
    24    26    27   ar
    25    27    28    1
    26    27    29   ar
    27    29    30    1
    28    29    31   ar
    29    31    32    1
    30    31    33   ar
    31     7     2    1
    32    33    25   ar
    33    20    12    1
    34    19    15   ar
    35     1     8    1
    36     1     9    1
@<TRIPOS>MOLECULE
*****
 33 36 0 0 0
SMALL
GASTEIGER

@<TRIPOS>ATOM
      1 N         141.6317  138.6863  165.3433 N.3     1  UNL1       -0.3217
      2 C         142.3460  139.9923  165.1588 C.3     1  UNL1        0.0597
      3 C         142.9270  140.3470  163.8221 C.3     1  UNL1        0.0464
      4 C         143.6413  141.6531  163.6376 C.2     1  UNL1        0.0285
      5 C         143.7745  142.6044  164.7897 C.2     1  UNL1       -0.0255
      6 C         143.1935  142.2496  166.1263 C.3     1  UNL1        0.0315
      7 C         142.4792  140.9436  166.3108 C.3     1  UNL1        0.0413
      8 H         141.6355  138.1694  164.4639 H       1  UNL1        0.1188
      9 H         140.6688  138.8628  165.6297 H       1  UNL1        0.1188
     10 C         144.2223  142.0078  162.3010 C.2     1  UNL1        0.2451
     11 O         145.6900  141.8275  162.0494 O.2     1  UNL1       -0.2703
     12 N         143.3356  142.5430  161.2158 N.am    1  UNL1       -0.2673
     13 C         143.9166  142.8978  159.8793 C.3     1  UNL1        0.1186
     14 C         143.0300  143.4330  158.7942 C.3     1  UNL1        0.1301
     15 N         141.5622  143.6134  159.0458 N.ar    1  UNL1       -0.2924
     16 C         140.9812  143.2586  160.3824 C.ar    1  UNL1        0.1636
     17 N         139.5089  143.5419  160.3377 N.ar    1  UNL1       -0.1316
     18 N         139.1800  144.0717  158.9735 N.ar    1  UNL1       -0.1249
     19 C         140.4490  144.1159  158.1750 C.ar    1  UNL1        0.2383
     20 C         141.8679  142.7234  161.4674 C.3     1  UNL1        0.1599
     21 C         140.5816  144.5810  156.7551 C.3     1  UNL1        0.4524
     22 F         140.7141  145.0460  155.3352 F       1  UNL1       -0.1632
     23 F         139.9029  143.3298  156.2820 F       1  UNL1       -0.1632
     24 F         141.2602  145.8322  157.2283 F       1  UNL1       -0.1632
     25 C         141.8982  140.5888  167.6474 C.ar    1  UNL1       -0.0163
     26 C         140.6736  141.2979  168.1450 C.ar    1  UNL1        0.0279
     27 C         140.0926  140.9430  169.4816 C.ar    1  UNL1        0.1693
     28 F         138.8680  141.6521  169.9792 F       1  UNL1       -0.2017
     29 C         140.7362  139.8792  170.3206 C.ar    1  UNL1        0.1946
     30 F         140.1551  139.5244  171.6572 F       1  UNL1       -0.1994
     31 C         141.9607  139.1701  169.8231 C.ar    1  UNL1        0.1693
     32 F         142.6043  138.1063  170.6621 F       1  UNL1       -0.2017
     33 C         142.5418  139.5249  168.4865 C.ar    1  UNL1        0.0279
@<TRIPOS>BOND
     1     2     1    1
     2     2     3    1
     3     3     4    1
     4     4    10    1
     5    10    11    2
     6    10    12   am
     7    12    13    1
     8    13    14    1
     9    14    15    1
    10    15    16   ar
    11    16    17   ar
    12    17    18   ar
    13    18    19   ar
    14    19    21    1
    15    21    22    1
    16    21    23    1
    17    21    24    1
    18    16    20    1
    19     4     5    2
    20     5     6    1
    21     6     7    1
    22     7    25    1
    23    25    26   ar
    24    26    27   ar
    25    27    28    1
    26    27    29   ar
    27    29    30    1
    28    29    31   ar
    29    31    32    1
    30    31    33   ar
    31     7     2    1
    32    33    25   ar
    33    20    12    1
    34    19    15   ar
    35     1     8    1
    36     1     9    1
@<TRIPOS>MOLECULE
*****
 33 36 0 0 0
SMALL
GASTEIGER

@<TRIPOS>ATOM
      1 N         138.7879  140.2524  166.2153 N.3     1  UNL1       -0.3217
      2 C         139.4069  141.1928  165.2242 C.3     1  UNL1        0.0597
      3 C         138.9947  141.1414  163.7828 C.3     1  UNL1        0.0464
      4 C         139.6138  142.0818  162.7917 C.2     1  UNL1        0.0285
      5 C         140.6450  143.0738  163.2420 C.2     1  UNL1       -0.0255
      6 C         141.0571  143.1252  164.6833 C.3     1  UNL1        0.0315
      7 C         140.4381  142.1847  165.6744 C.3     1  UNL1        0.0413
      8 H         138.1133  139.6530  165.7398 H       1  UNL1        0.1188
      9 H         138.3135  140.7882  166.9421 H       1  UNL1        0.1188
     10 C         139.2016  142.0304  161.3504 C.2     1  UNL1        0.2451
     11 O         138.1216  142.9410  160.8462 O.2     1  UNL1       -0.2703
     12 N         139.8695  141.0683  160.4131 N.am    1  UNL1       -0.2673
     13 C         139.4574  141.0168  158.9718 C.3     1  UNL1        0.1186
     14 C         140.1253  140.0548  158.0347 C.3     1  UNL1        0.1301
     15 N         141.2054  139.1441  158.5389 N.ar    1  UNL1       -0.2924
     16 C         141.6175  139.1955  159.9802 C.ar    1  UNL1        0.1636
     17 N         142.7046  138.1831  160.1879 N.ar    1  UNL1       -0.1316
     18 N         142.9644  137.5060  158.8748 N.ar    1  UNL1       -0.1249
     19 C         142.0378  138.0999  157.8557 C.ar    1  UNL1        0.2383
     20 C         140.9496  140.1576  160.9173 C.3     1  UNL1        0.1599
     21 C         141.9577  137.7168  156.4077 C.3     1  UNL1        0.4524
     22 F         141.8776  137.3339  154.9596 F       1  UNL1       -0.1632
     23 F         143.2249  138.4726  156.1377 F       1  UNL1       -0.1632
     24 F         140.6904  136.9611  156.6777 F       1  UNL1       -0.1632
     25 C         140.8502  142.2362  167.1157 C.ar    1  UNL1       -0.0163
     26 C         141.8900  141.2867  167.6328 C.ar    1  UNL1        0.0279
     27 C         142.3021  141.3382  169.0742 C.ar    1  UNL1        0.1693
     28 F         143.3419  140.3887  169.5913 F       1  UNL1       -0.2017
     29 C         141.6745  142.3391  169.9984 C.ar    1  UNL1        0.1946
     30 F         142.0867  142.3905  171.4397 F       1  UNL1       -0.1994
     31 C         140.6348  143.2886  169.4813 C.ar    1  UNL1        0.1693
     32 F         140.0072  144.2895  170.4055 F       1  UNL1       -0.2017
     33 C         140.2226  143.2372  168.0400 C.ar    1  UNL1        0.0279
@<TRIPOS>BOND
     1     2     1    1
     2     2     3    1
     3     3     4    1
     4     4    10    1
     5    10    11    2
     6    10    12   am
     7    12    13    1
     8    13    14    1
     9    14    15    1
    10    15    16   ar
    11    16    17   ar
    12    17    18   ar
    13    18    19   ar
    14    19    21    1
    15    21    22    1
    16    21    23    1
    17    21    24    1
    18    16    20    1
    19     4     5    2
    20     5     6    1
    21     6     7    1
    22     7    25    1
    23    25    26   ar
    24    26    27   ar
    25    27    28    1
    26    27    29   ar
    27    29    30    1
    28    29    31   ar
    29    31    32    1
    30    31    33   ar
    31     7     2    1
    32    33    25   ar
    33    20    12    1
    34    19    15   ar
    35     1     8    1
    36     1     9    1
