@<TRIPOS>MOLECULE
*****
 32 35 0 0 0
SMALL
GASTEIGER

@<TRIPOS>ATOM
      1 C         137.5874  138.4651  166.9629 C.3     1  UNL1        0.0523
      2 C         138.7151  138.8304  166.0438 C.3     1  UNL1        0.1898
      3 C         138.9567  140.2674  165.6874 C.ar    1  UNL1        0.0349
      4 C         138.2718  140.8702  164.4969 C.ar    1  UNL1        0.0018
      5 C         138.5135  142.3071  164.1406 C.ar    1  UNL1        0.0139
      6 C         139.4401  143.1411  164.9748 C.ar    1  UNL1        0.0027
      7 C         140.1251  142.5382  166.1652 C.ar    1  UNL1        0.0190
      8 C         139.8834  141.1013  166.5216 C.ar    1  UNL1        0.0822
      9 N         140.5683  140.4984  167.7121 N.ar    1  UNL1       -0.2283
     10 C         140.0037  140.4006  169.0983 C.ar    1  UNL1        0.1020
     11 C         141.0246  139.7292  169.9684 C.ar    1  UNL1        0.0431
     12 C         142.2202  139.4119  169.1198 C.ar    1  UNL1        0.1221
     13 N         141.9382  139.8873  167.7254 N.ar    1  UNL1       -0.1635
     14 C         137.8285  142.9100  162.9500 C.2     1  UNL1        0.0729
     15 O         137.5960  144.3906  162.8887 O.co2   1  UNL1       -0.5446
     16 O         137.3760  142.0323  161.8209 O.co2   1  UNL1       -0.5446
     17 O         139.6011  137.7589  165.4810 O.3     1  UNL1       -0.4719
     18 C         140.2976  137.9735  164.1700 C.ar    1  UNL1        0.1698
     19 C         139.5041  138.0189  162.8978 C.ar    1  UNL1        0.0414
     20 C         140.2006  138.2335  161.5867 C.ar    1  UNL1        0.0253
     21 C         139.4072  138.2788  160.3146 C.ar    1  UNL1        0.0314
     22 C         140.1036  138.4934  159.0035 C.ar    1  UNL1        0.1425
     23 F         139.3102  138.5388  157.7314 F       1  UNL1       -0.2041
     24 C         141.5935  138.6626  158.9646 C.ar    1  UNL1        0.0608
     25 C         142.3870  138.6173  160.2368 C.ar    1  UNL1        0.1599
     26 F         143.8769  138.7865  160.1979 F       1  UNL1       -0.2025
     27 C         141.6905  138.4027  161.5478 C.ar    1  UNL1        0.1104
     28 N         142.4840  138.3573  162.8199 N.ar    1  UNL1       -0.2257
     29 C         141.7875  138.1427  164.1311 C.ar    1  UNL1        0.1597
     30 N         142.5810  138.0974  165.4032 N.pl3   1  UNL1       -0.3402
     31 H         143.5588  138.2084  165.3776 H       1  UNL1        0.1438
     32 H         142.1239  137.9565  166.2637 H       1  UNL1        0.1438
@<TRIPOS>UNITY_ATOM_ATTR
15 1
charge -1
@<TRIPOS>BOND
     1     2     1    1
     2     2    17    1
     3    17    18    1
     4    18    19   ar
     5    19    20   ar
     6    20    21   ar
     7    21    22   ar
     8    22    23    1
     9    22    24   ar
    10    24    25   ar
    11    25    26    1
    12    25    27   ar
    13    27    28   ar
    14    28    29   ar
    15    29    30    1
    16     2     3    1
    17     3     4   ar
    18     4     5   ar
    19     5    14    1
    20    14    15   ar
    21    14    16   ar
    22     5     6   ar
    23     6     7   ar
    24     7     8   ar
    25     8     9    1
    26     9    10   ar
    27    10    11   ar
    28    11    12   ar
    29    12    13   ar
    30    29    18   ar
    31     8     3   ar
    32    13     9   ar
    33    27    20   ar
    34    30    31    1
    35    30    32    1
@<TRIPOS>MOLECULE
*****
 32 35 0 0 0
SMALL
GASTEIGER

@<TRIPOS>ATOM
      1 C         141.2724  142.6697  164.3323 C.3     1  UNL1        0.0523
      2 C         140.0798  142.2281  165.1276 C.3     1  UNL1        0.1898
      3 C         140.2313  141.8888  166.5809 C.ar    1  UNL1        0.0349
      4 C         140.4896  142.9757  167.5819 C.ar    1  UNL1        0.0018
      5 C         140.6412  142.6364  169.0351 C.ar    1  UNL1        0.0139
      6 C         140.5344  141.2102  169.4873 C.ar    1  UNL1        0.0027
      7 C         140.2761  140.1233  168.4864 C.ar    1  UNL1        0.0190
      8 C         140.1245  140.4626  167.0332 C.ar    1  UNL1        0.0822
      9 N         139.8662  139.3757  166.0322 N.ar    1  UNL1       -0.2283
     10 C         138.5272  138.7933  165.6888 C.ar    1  UNL1        0.1020
     11 C         138.7351  137.7381  164.6433 C.ar    1  UNL1        0.0431
     12 C         140.2026  137.6682  164.3404 C.ar    1  UNL1        0.1221
     13 N         140.9016  138.6803  165.1988 N.ar    1  UNL1       -0.1635
     14 C         140.8995  143.7233  170.0361 C.2     1  UNL1        0.0729
     15 O         142.2132  143.7817  170.7575 O.co2   1  UNL1       -0.5446
     16 O         139.8440  144.7518  170.3156 O.co2   1  UNL1       -0.5446
     17 O         138.7357  142.1257  164.4698 O.3     1  UNL1       -0.4719
     18 C         138.6394  141.9592  162.9822 C.ar    1  UNL1        0.1698
     19 C         139.0962  140.6833  162.3391 C.ar    1  UNL1        0.0414
     20 C         139.0000  140.5168  160.8515 C.ar    1  UNL1        0.0253
     21 C         139.4567  139.2409  160.2086 C.ar    1  UNL1        0.0314
     22 C         139.3605  139.0744  158.7209 C.ar    1  UNL1        0.1425
     23 F         139.8172  137.7985  158.0780 F       1  UNL1       -0.2041
     24 C         138.8075  140.1838  157.8763 C.ar    1  UNL1        0.0608
     25 C         138.3508  141.4598  158.5193 C.ar    1  UNL1        0.1599
     26 F         137.7978  142.5692  157.6747 F       1  UNL1       -0.2025
     27 C         138.4470  141.6262  160.0069 C.ar    1  UNL1        0.1104
     28 N         137.9903  142.9021  160.6499 N.ar    1  UNL1       -0.2257
     29 C         138.0865  143.0687  162.1375 C.ar    1  UNL1        0.1597
     30 N         137.6298  144.3446  162.7805 N.pl3   1  UNL1       -0.3402
     31 H         137.2669  145.0727  162.2261 H       1  UNL1        0.1438
     32 H         137.6929  144.4538  163.7569 H       1  UNL1        0.1438
@<TRIPOS>UNITY_ATOM_ATTR
15 1
charge -1
@<TRIPOS>BOND
     1     2     1    1
     2     2    17    1
     3    17    18    1
     4    18    19   ar
     5    19    20   ar
     6    20    21   ar
     7    21    22   ar
     8    22    23    1
     9    22    24   ar
    10    24    25   ar
    11    25    26    1
    12    25    27   ar
    13    27    28   ar
    14    28    29   ar
    15    29    30    1
    16     2     3    1
    17     3     4   ar
    18     4     5   ar
    19     5    14    1
    20    14    15   ar
    21    14    16   ar
    22     5     6   ar
    23     6     7   ar
    24     7     8   ar
    25     8     9    1
    26     9    10   ar
    27    10    11   ar
    28    11    12   ar
    29    12    13   ar
    30    29    18   ar
    31     8     3   ar
    32    13     9   ar
    33    27    20   ar
    34    30    31    1
    35    30    32    1
@<TRIPOS>MOLECULE
*****
 32 35 0 0 0
SMALL
GASTEIGER

@<TRIPOS>ATOM
      1 C         142.1320  142.1622  164.9151 C.3     1  UNL1        0.0523
      2 C         140.8349  142.5889  165.5356 C.3     1  UNL1        0.1898
      3 C         140.3634  141.9451  166.8058 C.ar    1  UNL1        0.0349
      4 C         140.4711  142.6846  168.1064 C.ar    1  UNL1        0.0018
      5 C         139.9996  142.0408  169.3765 C.ar    1  UNL1        0.0139
      6 C         139.4206  140.6574  169.3460 C.ar    1  UNL1        0.0027
      7 C         139.3129  139.9178  168.0455 C.ar    1  UNL1        0.0190
      8 C         139.7844  140.5617  166.7754 C.ar    1  UNL1        0.0822
      9 N         139.6767  139.8222  165.4747 N.ar    1  UNL1       -0.2283
     10 C         138.5065  139.8534  164.5369 C.ar    1  UNL1        0.1020
     11 C         138.8270  138.9721  163.3662 C.ar    1  UNL1        0.0431
     12 C         140.1954  138.3961  163.5805 C.ar    1  UNL1        0.1221
     13 N         140.7205  138.9215  164.8836 N.ar    1  UNL1       -0.1635
     14 C         140.1073  142.7803  170.6771 C.2     1  UNL1        0.0729
     15 O         140.6233  142.0787  171.8983 O.co2   1  UNL1       -0.5446
     16 O         139.6988  144.2214  170.7564 O.co2   1  UNL1       -0.5446
     17 O         140.0090  143.6595  164.8861 O.3     1  UNL1       -0.4719
     18 C         140.0091  143.8046  163.3932 C.ar    1  UNL1        0.1698
     19 C         139.2335  142.8399  162.5458 C.ar    1  UNL1        0.0414
     20 C         139.2335  142.9850  161.0529 C.ar    1  UNL1        0.0253
     21 C         138.4580  142.0203  160.2057 C.ar    1  UNL1        0.0314
     22 C         138.4580  142.1654  158.7126 C.ar    1  UNL1        0.1425
     23 F         137.6824  141.2007  157.8654 F       1  UNL1       -0.2041
     24 C         139.2336  143.2751  158.0669 C.ar    1  UNL1        0.0608
     25 C         140.0092  144.2398  158.9143 C.ar    1  UNL1        0.1599
     26 F         140.7848  145.3495  158.2686 F       1  UNL1       -0.2025
     27 C         140.0091  144.0947  160.4072 C.ar    1  UNL1        0.1104
     28 N         140.7847  145.0594  161.2545 N.ar    1  UNL1       -0.2257
     29 C         140.7847  144.9143  162.7475 C.ar    1  UNL1        0.1597
     30 N         141.5603  145.8790  163.5947 N.pl3   1  UNL1       -0.3402
     31 H         142.0693  146.6073  163.1709 H       1  UNL1        0.1438
     32 H         141.5602  145.7838  164.5746 H       1  UNL1        0.1438
@<TRIPOS>UNITY_ATOM_ATTR
15 1
charge -1
@<TRIPOS>BOND
     1     2     1    1
     2     2    17    1
     3    17    18    1
     4    18    19   ar
     5    19    20   ar
     6    20    21   ar
     7    21    22   ar
     8    22    23    1
     9    22    24   ar
    10    24    25   ar
    11    25    26    1
    12    25    27   ar
    13    27    28   ar
    14    28    29   ar
    15    29    30    1
    16     2     3    1
    17     3     4   ar
    18     4     5   ar
    19     5    14    1
    20    14    15   ar
    21    14    16   ar
    22     5     6   ar
    23     6     7   ar
    24     7     8   ar
    25     8     9    1
    26     9    10   ar
    27    10    11   ar
    28    11    12   ar
    29    12    13   ar
    30    29    18   ar
    31     8     3   ar
    32    13     9   ar
    33    27    20   ar
    34    30    31    1
    35    30    32    1
@<TRIPOS>MOLECULE
*****
 32 35 0 0 0
SMALL
GASTEIGER

@<TRIPOS>ATOM
      1 C         143.5504  138.5562  166.2372 C.3     1  UNL1        0.0523
      2 C         142.7242  139.8033  166.3470 C.3     1  UNL1        0.1898
      3 C         141.2769  139.7128  166.7308 C.ar    1  UNL1        0.0349
      4 C         140.8430  140.0927  168.1154 C.ar    1  UNL1        0.0018
      5 C         139.3957  140.0022  168.4991 C.ar    1  UNL1        0.0139
      6 C         138.3824  139.5317  167.4982 C.ar    1  UNL1        0.0027
      7 C         138.8164  139.1517  166.1135 C.ar    1  UNL1        0.0190
      8 C         140.2636  139.2423  165.7298 C.ar    1  UNL1        0.0822
      9 N         140.6976  138.8623  164.3451 N.ar    1  UNL1       -0.2283
     10 C         140.6973  139.7601  163.1435 C.ar    1  UNL1        0.1020
     11 C         141.2076  138.9704  161.9747 C.ar    1  UNL1        0.0431
     12 C         141.5234  137.5845  162.4540 C.ar    1  UNL1        0.1221
     13 N         141.2082  137.5177  163.9190 N.ar    1  UNL1       -0.1635
     14 C         138.9617  140.3822  169.8838 C.2     1  UNL1        0.0729
     15 O         137.9311  139.5598  170.5989 O.co2   1  UNL1       -0.5446
     16 O         139.5584  141.5846  170.5533 O.co2   1  UNL1       -0.5446
     17 O         143.3452  141.1410  166.0730 O.3     1  UNL1       -0.4719
     18 C         143.0615  141.8491  164.7815 C.ar    1  UNL1        0.1698
     19 C         141.9652  142.8705  164.7112 C.ar    1  UNL1        0.0414
     20 C         141.6816  143.5787  163.4197 C.ar    1  UNL1        0.0253
     21 C         140.5853  144.6000  163.3495 C.ar    1  UNL1        0.0314
     22 C         140.3016  145.3083  162.0579 C.ar    1  UNL1        0.1425
     23 F         139.2054  146.3296  161.9877 F       1  UNL1       -0.2041
     24 C         141.1142  144.9950  160.8367 C.ar    1  UNL1        0.0608
     25 C         142.2106  143.9736  160.9069 C.ar    1  UNL1        0.1599
     26 F         143.0232  143.6604  159.6856 F       1  UNL1       -0.2025
     27 C         142.4942  143.2655  162.1984 C.ar    1  UNL1        0.1104
     28 N         143.5905  142.2441  162.2686 N.ar    1  UNL1       -0.2257
     29 C         143.8742  141.5359  163.5602 C.ar    1  UNL1        0.1597
     30 N         144.9704  140.5145  163.6304 N.pl3   1  UNL1       -0.3402
     31 H         145.5037  140.3089  162.8288 H       1  UNL1        0.1438
     32 H         145.1566  140.0497  164.4781 H       1  UNL1        0.1438
@<TRIPOS>UNITY_ATOM_ATTR
15 1
charge -1
@<TRIPOS>BOND
     1     2     1    1
     2     2    17    1
     3    17    18    1
     4    18    19   ar
     5    19    20   ar
     6    20    21   ar
     7    21    22   ar
     8    22    23    1
     9    22    24   ar
    10    24    25   ar
    11    25    26    1
    12    25    27   ar
    13    27    28   ar
    14    28    29   ar
    15    29    30    1
    16     2     3    1
    17     3     4   ar
    18     4     5   ar
    19     5    14    1
    20    14    15   ar
    21    14    16   ar
    22     5     6   ar
    23     6     7   ar
    24     7     8   ar
    25     8     9    1
    26     9    10   ar
    27    10    11   ar
    28    11    12   ar
    29    12    13   ar
    30    29    18   ar
    31     8     3   ar
    32    13     9   ar
    33    27    20   ar
    34    30    31    1
    35    30    32    1
@<TRIPOS>MOLECULE
*****
 32 35 0 0 0
SMALL
GASTEIGER

@<TRIPOS>ATOM
      1 C         139.9073  141.2803  164.7004 C.3     1  UNL1        0.0523
      2 C         140.8462  142.3878  165.0770 C.3     1  UNL1        0.1898
      3 C         141.3841  142.4724  166.4747 C.ar    1  UNL1        0.0349
      4 C         140.4830  142.8822  167.6016 C.ar    1  UNL1        0.0018
      5 C         141.0209  142.9668  168.9992 C.ar    1  UNL1        0.0139
      6 C         142.4600  142.6416  169.2700 C.ar    1  UNL1        0.0027
      7 C         143.3611  142.2318  168.1431 C.ar    1  UNL1        0.0190
      8 C         142.8232  142.1472  166.7454 C.ar    1  UNL1        0.0822
      9 N         143.7243  141.7373  165.6184 N.ar    1  UNL1       -0.2283
     10 C         143.8242  140.3636  165.0243 C.ar    1  UNL1        0.1020
     11 C         144.8454  140.4066  163.9265 C.ar    1  UNL1        0.0431
     12 C         145.3766  141.8068  163.8420 C.ar    1  UNL1        0.1221
     13 N         144.6838  142.6293  164.8877 N.ar    1  UNL1       -0.1635
     14 C         140.1198  143.3767  170.1262 C.2     1  UNL1        0.0729
     15 O         139.4431  142.3320  170.9633 O.co2   1  UNL1       -0.5446
     16 O         139.8954  144.8312  170.4161 O.co2   1  UNL1       -0.5446
     17 O         141.2472  143.4108  164.0558 O.3     1  UNL1       -0.4719
     18 C         141.9629  142.9847  162.8084 C.ar    1  UNL1        0.1698
     19 C         141.7771  141.5953  162.2745 C.ar    1  UNL1        0.0414
     20 C         142.4928  141.1692  161.0270 C.ar    1  UNL1        0.0253
     21 C         142.3069  139.7799  160.4931 C.ar    1  UNL1        0.0314
     22 C         143.0227  139.3537  159.2456 C.ar    1  UNL1        0.1425
     23 F         142.8368  137.9644  158.7118 F       1  UNL1       -0.2041
     24 C         143.9242  140.3171  158.5320 C.ar    1  UNL1        0.0608
     25 C         144.1100  141.7065  159.0659 C.ar    1  UNL1        0.1599
     26 F         145.0115  142.6699  158.3523 F       1  UNL1       -0.2025
     27 C         143.3943  142.1326  160.3134 C.ar    1  UNL1        0.1104
     28 N         143.5801  143.5220  160.8472 N.ar    1  UNL1       -0.2257
     29 C         142.8644  143.9481  162.0948 C.ar    1  UNL1        0.1597
     30 N         143.0502  145.3374  162.6286 N.pl3   1  UNL1       -0.3402
     31 H         143.6419  145.9697  162.1602 H       1  UNL1        0.1438
     32 H         142.5805  145.6171  163.4474 H       1  UNL1        0.1438
@<TRIPOS>UNITY_ATOM_ATTR
15 1
charge -1
@<TRIPOS>BOND
     1     2     1    1
     2     2    17    1
     3    17    18    1
     4    18    19   ar
     5    19    20   ar
     6    20    21   ar
     7    21    22   ar
     8    22    23    1
     9    22    24   ar
    10    24    25   ar
    11    25    26    1
    12    25    27   ar
    13    27    28   ar
    14    28    29   ar
    15    29    30    1
    16     2     3    1
    17     3     4   ar
    18     4     5   ar
    19     5    14    1
    20    14    15   ar
    21    14    16   ar
    22     5     6   ar
    23     6     7   ar
    24     7     8   ar
    25     8     9    1
    26     9    10   ar
    27    10    11   ar
    28    11    12   ar
    29    12    13   ar
    30    29    18   ar
    31     8     3   ar
    32    13     9   ar
    33    27    20   ar
    34    30    31    1
    35    30    32    1
@<TRIPOS>MOLECULE
*****
 32 35 0 0 0
SMALL
GASTEIGER

@<TRIPOS>ATOM
      1 C         139.4042  143.3380  164.5264 C.3     1  UNL1        0.0523
      2 C         140.5293  142.7993  165.3594 C.3     1  UNL1        0.1898
      3 C         140.2372  142.1140  166.6613 C.ar    1  UNL1        0.0349
      4 C         140.3429  142.8748  167.9497 C.ar    1  UNL1        0.0018
      5 C         140.0508  142.1894  169.2515 C.ar    1  UNL1        0.0139
      6 C         139.6530  140.7432  169.2650 C.ar    1  UNL1        0.0027
      7 C         139.5472  139.9824  167.9767 C.ar    1  UNL1        0.0190
      8 C         139.8393  140.6677  166.6748 C.ar    1  UNL1        0.0822
      9 N         139.7336  139.9069  165.3863 N.ar    1  UNL1       -0.2283
     10 C         140.7925  139.0253  164.7936 C.ar    1  UNL1        0.1020
     11 C         140.2637  138.4677  163.5054 C.ar    1  UNL1        0.0431
     12 C         138.8780  139.0047  163.3020 C.ar    1  UNL1        0.1221
     13 N         138.5504  139.8942  164.4645 N.ar    1  UNL1       -0.1635
     14 C         140.1565  142.9502  170.5400 C.2     1  UNL1        0.0729
     15 O         140.5251  142.2345  171.8056 O.co2   1  UNL1       -0.5446
     16 O         139.8937  144.4268  170.5627 O.co2   1  UNL1       -0.5446
     17 O         141.9466  142.9460  164.8905 O.3     1  UNL1       -0.4719
     18 C         142.2609  142.8932  163.4248 C.ar    1  UNL1        0.1698
     19 C         142.3982  141.5686  162.7344 C.ar    1  UNL1        0.0414
     20 C         142.7126  141.5158  161.2687 C.ar    1  UNL1        0.0253
     21 C         142.8499  140.1913  160.5783 C.ar    1  UNL1        0.0314
     22 C         143.1642  140.1384  159.1125 C.ar    1  UNL1        0.1425
     23 F         143.3015  138.8138  158.4222 F       1  UNL1       -0.2041
     24 C         143.3413  141.4102  158.3372 C.ar    1  UNL1        0.0608
     25 C         143.2040  142.7348  159.0276 C.ar    1  UNL1        0.1599
     26 F         143.3810  144.0066  158.2522 F       1  UNL1       -0.2025
     27 C         142.8896  142.7876  160.4933 C.ar    1  UNL1        0.1104
     28 N         142.7523  144.1122  161.1836 N.ar    1  UNL1       -0.2257
     29 C         142.4380  144.1650  162.6494 C.ar    1  UNL1        0.1597
     30 N         142.3007  145.4896  163.3397 N.pl3   1  UNL1       -0.3402
     31 H         142.4169  146.3243  162.8308 H       1  UNL1        0.1438
     32 H         142.0944  145.5243  164.3017 H       1  UNL1        0.1438
@<TRIPOS>UNITY_ATOM_ATTR
15 1
charge -1
@<TRIPOS>BOND
     1     2     1    1
     2     2    17    1
     3    17    18    1
     4    18    19   ar
     5    19    20   ar
     6    20    21   ar
     7    21    22   ar
     8    22    23    1
     9    22    24   ar
    10    24    25   ar
    11    25    26    1
    12    25    27   ar
    13    27    28   ar
    14    28    29   ar
    15    29    30    1
    16     2     3    1
    17     3     4   ar
    18     4     5   ar
    19     5    14    1
    20    14    15   ar
    21    14    16   ar
    22     5     6   ar
    23     6     7   ar
    24     7     8   ar
    25     8     9    1
    26     9    10   ar
    27    10    11   ar
    28    11    12   ar
    29    12    13   ar
    30    29    18   ar
    31     8     3   ar
    32    13     9   ar
    33    27    20   ar
    34    30    31    1
    35    30    32    1
@<TRIPOS>MOLECULE
*****
 32 35 0 0 0
SMALL
GASTEIGER

@<TRIPOS>ATOM
      1 C         139.3021  143.2327  164.5364 C.3     1  UNL1        0.0523
      2 C         140.4089  142.5624  165.2951 C.3     1  UNL1        0.1898
      3 C         140.1329  141.9421  166.6327 C.ar    1  UNL1        0.0349
      4 C         140.3088  142.7495  167.8845 C.ar    1  UNL1        0.0018
      5 C         140.0328  142.1292  169.2220 C.ar    1  UNL1        0.0139
      6 C         139.5809  140.7015  169.3077 C.ar    1  UNL1        0.0027
      7 C         139.4050  139.8940  168.0559 C.ar    1  UNL1        0.0190
      8 C         139.6810  140.5143  166.7184 C.ar    1  UNL1        0.0822
      9 N         139.5051  139.7069  165.4665 N.ar    1  UNL1       -0.2283
     10 C         140.3445  138.5368  165.0468 C.ar    1  UNL1        0.1020
     11 C         139.8171  138.0346  163.7354 C.ar    1  UNL1        0.0431
     12 C         138.6517  138.8944  163.3446 C.ar    1  UNL1        0.1221
     13 N         138.4589  139.9279  164.4145 N.ar    1  UNL1       -0.1635
     14 C         140.2087  142.9366  170.4739 C.2     1  UNL1        0.0729
     15 O         140.0194  144.4242  170.4397 O.co2   1  UNL1       -0.5446
     16 O         140.5740  142.2564  171.7599 O.co2   1  UNL1       -0.5446
     17 O         141.7918  142.5123  164.7161 O.3     1  UNL1       -0.4719
     18 C         142.1700  141.4101  163.7717 C.ar    1  UNL1        0.1698
     19 C         141.4762  141.2859  162.4475 C.ar    1  UNL1        0.0414
     20 C         141.8544  140.1837  161.5030 C.ar    1  UNL1        0.0253
     21 C         141.1606  140.0596  160.1790 C.ar    1  UNL1        0.0314
     22 C         141.5388  138.9574  159.2344 C.ar    1  UNL1        0.1425
     23 F         140.8450  138.8333  157.9104 F       1  UNL1       -0.2041
     24 C         142.6108  137.9793  159.6140 C.ar    1  UNL1        0.0608
     25 C         143.3047  138.1034  160.9382 C.ar    1  UNL1        0.1599
     26 F         144.3767  137.1253  161.3178 F       1  UNL1       -0.2025
     27 C         142.9264  139.2056  161.8826 C.ar    1  UNL1        0.1104
     28 N         143.6202  139.3297  163.2067 N.ar    1  UNL1       -0.2257
     29 C         143.2420  140.4320  164.1513 C.ar    1  UNL1        0.1597
     30 N         143.9359  140.5561  165.4753 N.pl3   1  UNL1       -0.3402
     31 H         144.6394  139.9141  165.7244 H       1  UNL1        0.1438
     32 H         143.6876  141.2795  166.0952 H       1  UNL1        0.1438
@<TRIPOS>UNITY_ATOM_ATTR
15 1
charge -1
@<TRIPOS>BOND
     1     2     1    1
     2     2    17    1
     3    17    18    1
     4    18    19   ar
     5    19    20   ar
     6    20    21   ar
     7    21    22   ar
     8    22    23    1
     9    22    24   ar
    10    24    25   ar
    11    25    26    1
    12    25    27   ar
    13    27    28   ar
    14    28    29   ar
    15    29    30    1
    16     2     3    1
    17     3     4   ar
    18     4     5   ar
    19     5    14    1
    20    14    15   ar
    21    14    16   ar
    22     5     6   ar
    23     6     7   ar
    24     7     8   ar
    25     8     9    1
    26     9    10   ar
    27    10    11   ar
    28    11    12   ar
    29    12    13   ar
    30    29    18   ar
    31     8     3   ar
    32    13     9   ar
    33    27    20   ar
    34    30    31    1
    35    30    32    1
@<TRIPOS>MOLECULE
*****
 32 35 0 0 0
SMALL
GASTEIGER

@<TRIPOS>ATOM
      1 C         139.9766  141.3372  165.0242 C.3     1  UNL1        0.0523
      2 C         140.5825  142.5868  165.5910 C.3     1  UNL1        0.1898
      3 C         141.2470  142.5551  166.9354 C.ar    1  UNL1        0.0349
      4 C         140.4413  142.8024  168.1763 C.ar    1  UNL1        0.0018
      5 C         141.1059  142.7707  169.5206 C.ar    1  UNL1        0.0139
      6 C         142.5760  142.4917  169.6241 C.ar    1  UNL1        0.0027
      7 C         143.3817  142.2444  168.3833 C.ar    1  UNL1        0.0190
      8 C         142.7172  142.2761  167.0389 C.ar    1  UNL1        0.0822
      9 N         143.5228  142.0288  165.7980 N.ar    1  UNL1       -0.2283
     10 C         143.6102  140.7332  165.0471 C.ar    1  UNL1        0.1020
     11 C         144.5239  140.9374  163.8752 C.ar    1  UNL1        0.0431
     12 C         145.0012  142.3592  163.9017 C.ar    1  UNL1        0.1221
     13 N         144.3825  143.0337  165.0901 N.ar    1  UNL1       -0.1635
     14 C         140.3002  143.0180  170.7615 C.2     1  UNL1        0.0729
     15 O         140.4169  142.0846  171.9299 O.co2   1  UNL1       -0.5446
     16 O         139.3779  144.1987  170.8340 O.co2   1  UNL1       -0.5446
     17 O         140.5238  143.8682  164.8134 O.3     1  UNL1       -0.4719
     18 C         140.5414  143.8370  163.3138 C.ar    1  UNL1        0.1698
     19 C         141.8197  143.5467  162.5846 C.ar    1  UNL1        0.0414
     20 C         141.8372  143.5155  161.0850 C.ar    1  UNL1        0.0253
     21 C         143.1155  143.2252  160.3559 C.ar    1  UNL1        0.0314
     22 C         143.1331  143.1940  158.8562 C.ar    1  UNL1        0.1425
     23 F         144.4113  142.9037  158.1271 F       1  UNL1       -0.2041
     24 C         141.8723  143.4531  158.0859 C.ar    1  UNL1        0.0608
     25 C         140.5940  143.7434  158.8151 C.ar    1  UNL1        0.1599
     26 F         139.3333  144.0025  158.0448 F       1  UNL1       -0.2025
     27 C         140.5765  143.7746  160.3147 C.ar    1  UNL1        0.1104
     28 N         139.2983  144.0649  161.0438 N.ar    1  UNL1       -0.2257
     29 C         139.2807  144.0961  162.5435 C.ar    1  UNL1        0.1597
     30 N         138.0024  144.3864  163.2726 N.pl3   1  UNL1       -0.3402
     31 H         137.1750  144.5564  162.7670 H       1  UNL1        0.1438
     32 H         137.9909  144.4069  164.2569 H       1  UNL1        0.1438
@<TRIPOS>UNITY_ATOM_ATTR
15 1
charge -1
@<TRIPOS>BOND
     1     2     1    1
     2     2    17    1
     3    17    18    1
     4    18    19   ar
     5    19    20   ar
     6    20    21   ar
     7    21    22   ar
     8    22    23    1
     9    22    24   ar
    10    24    25   ar
    11    25    26    1
    12    25    27   ar
    13    27    28   ar
    14    28    29   ar
    15    29    30    1
    16     2     3    1
    17     3     4   ar
    18     4     5   ar
    19     5    14    1
    20    14    15   ar
    21    14    16   ar
    22     5     6   ar
    23     6     7   ar
    24     7     8   ar
    25     8     9    1
    26     9    10   ar
    27    10    11   ar
    28    11    12   ar
    29    12    13   ar
    30    29    18   ar
    31     8     3   ar
    32    13     9   ar
    33    27    20   ar
    34    30    31    1
    35    30    32    1
@<TRIPOS>MOLECULE
*****
 32 35 0 0 0
SMALL
GASTEIGER

@<TRIPOS>ATOM
      1 C         143.1748  138.4617  165.6321 C.3     1  UNL1        0.0523
      2 C         142.8759  139.8527  166.1073 C.3     1  UNL1        0.1898
      3 C         141.7587  140.0891  167.0801 C.ar    1  UNL1        0.0349
      4 C         142.0551  140.6417  168.4427 C.ar    1  UNL1        0.0018
      5 C         140.9381  140.8780  169.4154 C.ar    1  UNL1        0.0139
      6 C         139.5246  140.5618  169.0255 C.ar    1  UNL1        0.0027
      7 C         139.2281  140.0092  167.6629 C.ar    1  UNL1        0.0190
      8 C         140.3452  139.7729  166.6902 C.ar    1  UNL1        0.0822
      9 N         140.0489  139.2203  165.3275 N.ar    1  UNL1       -0.2283
     10 C         139.6063  137.8202  165.0209 C.ar    1  UNL1        0.1020
     11 C         139.4269  137.7054  163.5361 C.ar    1  UNL1        0.0431
     12 C         139.7587  139.0345  162.9250 C.ar    1  UNL1        0.1221
     13 N         140.1431  139.9707  164.0321 N.ar    1  UNL1       -0.1635
     14 C         141.2344  141.4306  170.7781 C.2     1  UNL1        0.0729
     15 O         142.1608  142.6009  170.9276 O.co2   1  UNL1       -0.5446
     16 O         140.6044  140.8130  171.9912 O.co2   1  UNL1       -0.5446
     17 O         143.6940  141.0073  165.6098 O.3     1  UNL1       -0.4719
     18 C         143.2918  141.7266  164.3565 C.ar    1  UNL1        0.1698
     19 C         142.3338  142.8788  164.4276 C.ar    1  UNL1        0.0414
     20 C         141.9315  143.5981  163.1743 C.ar    1  UNL1        0.0253
     21 C         140.9736  144.7502  163.2454 C.ar    1  UNL1        0.0314
     22 C         140.5713  145.4696  161.9921 C.ar    1  UNL1        0.1425
     23 F         139.6134  146.6216  162.0633 F       1  UNL1       -0.2041
     24 C         141.1270  145.0369  160.6678 C.ar    1  UNL1        0.0608
     25 C         142.0850  143.8847  160.5967 C.ar    1  UNL1        0.1599
     26 F         142.6407  143.4520  159.2723 F       1  UNL1       -0.2025
     27 C         142.4872  143.1654  161.8500 C.ar    1  UNL1        0.1104
     28 N         143.4451  142.0133  161.7788 N.ar    1  UNL1       -0.2257
     29 C         143.8474  141.2939  163.0321 C.ar    1  UNL1        0.1597
     30 N         144.8053  140.1419  162.9610 N.pl3   1  UNL1       -0.3402
     31 H         145.1701  139.8579  162.0918 H       1  UNL1        0.1438
     32 H         145.0694  139.6697  163.7836 H       1  UNL1        0.1438
@<TRIPOS>UNITY_ATOM_ATTR
15 1
charge -1
@<TRIPOS>BOND
     1     2     1    1
     2     2    17    1
     3    17    18    1
     4    18    19   ar
     5    19    20   ar
     6    20    21   ar
     7    21    22   ar
     8    22    23    1
     9    22    24   ar
    10    24    25   ar
    11    25    26    1
    12    25    27   ar
    13    27    28   ar
    14    28    29   ar
    15    29    30    1
    16     2     3    1
    17     3     4   ar
    18     4     5   ar
    19     5    14    1
    20    14    15   ar
    21    14    16   ar
    22     5     6   ar
    23     6     7   ar
    24     7     8   ar
    25     8     9    1
    26     9    10   ar
    27    10    11   ar
    28    11    12   ar
    29    12    13   ar
    30    29    18   ar
    31     8     3   ar
    32    13     9   ar
    33    27    20   ar
    34    30    31    1
    35    30    32    1
