@<TRIPOS>MOLECULE
*****
 39 43 0 0 0
SMALL
GASTEIGER

@<TRIPOS>ATOM
      1 C         141.3051  138.7236  161.1890 C.ar    1  UNL1       -0.0223
      2 C         140.5791  137.8371  162.1570 C.ar    1  UNL1       -0.0030
      3 C         140.5530  138.1830  163.6164 C.ar    1  UNL1        0.0143
      4 C         141.2529  139.4154  164.1077 C.ar    1  UNL1        0.0502
      5 C         141.9789  140.3019  163.1396 C.ar    1  UNL1        0.0089
      6 C         142.0049  139.9560  161.6803 C.ar    1  UNL1       -0.0034
      7 C         141.4094  137.3400  155.3516 C.2     1  UNL1        0.2317
      8 O         140.1937  137.5717  154.5040 O.2     1  UNL1       -0.2744
      9 N         141.3833  137.6859  156.8110 N.am    1  UNL1       -0.2792
     10 C         140.1415  138.2635  157.4228 C.3     1  UNL1        0.0937
     11 C         140.1155  138.6093  158.8821 C.3     1  UNL1        0.0259
     12 C         141.3312  138.3777  159.7296 C.3     1  UNL1        0.0257
     13 C         142.5730  137.8001  159.1178 C.3     1  UNL1        0.0259
     14 C         142.5990  137.4542  157.6585 C.3     1  UNL1        0.0937
     15 C         142.6512  136.7625  154.7398 C.3     1  UNL1        0.1325
     16 C         144.3964  131.9532  156.0456 C.3     1  UNL1        0.1321
     17 N         143.6740  133.0681  155.3495 N.ar    1  UNL1       -0.3061
     18 C         142.7483  132.9231  154.1780 C.ar    1  UNL1        0.1783
     19 N         142.2525  134.2894  153.8071 N.ar    1  UNL1       -0.2278
     20 C         142.8718  135.2787  154.7493 C.ar    1  UNL1        0.0870
     21 C         143.7503  134.5240  155.7025 C.ar    1  UNL1        0.0925
     22 C         142.6787  141.5343  163.6309 C.2     1  UNL1       -0.0253
     23 C         141.9454  142.8417  163.6858 C.2     1  UNL1       -0.0303
     24 C         142.6453  144.0741  164.1770 C.3     1  UNL1        0.0257
     25 C         144.0785  143.9991  164.6135 C.3     1  UNL1        0.0050
     26 C         144.8117  142.6917  164.5586 C.3     1  UNL1        0.0050
     27 C         144.1119  141.4593  164.0673 C.3     1  UNL1        0.0261
     28 N         141.2268  139.7613  165.5670 N.am    1  UNL1       -0.2779
     29 C         142.2515  139.1783  166.4944 C.2     1  UNL1        0.2837
     30 O         143.3022  138.2494  165.9624 O.2     1  UNL1       -0.2665
     31 H         140.5371  140.3710  165.9161 H       1  UNL1        0.1553
     32 C         142.2254  139.5242  167.9537 C.ar    1  UNL1        0.1959
     33 N         141.3485  140.5555  168.5999 N.ar    1  UNL1       -0.2123
     34 C         141.6528  140.5682  170.0686 C.ar    1  UNL1        0.1678
     35 C         142.7178  139.5448  170.3302 C.ar    1  UNL1        0.1036
     36 N         143.0717  138.8996  169.0232 N.ar    1  UNL1       -0.3319
     37 H         143.7418  138.1907  168.8905 H       1  UNL1        0.1676
     38 C         141.0057  141.4496  171.0955 C.1     1  UNL1        0.1214
     39 N         140.3586  142.3310  172.1223 N.1     1  UNL1       -0.1892
@<TRIPOS>BOND
     1    16    17    1
     2    17    18   ar
     3    18    19   ar
     4    19    20   ar
     5    20    15    1
     6    15     7    1
     7     7     8    2
     8     7     9   am
     9     9    10    1
    10    10    11    1
    11    11    12    1
    12    12     1    1
    13     1     2   ar
    14     2     3   ar
    15     3     4   ar
    16     4    28    1
    17    28    29   am
    18    29    30    2
    19    29    32    1
    20    32    33   ar
    21    33    34   ar
    22    34    38    1
    23    38    39    3
    24    34    35   ar
    25    35    36   ar
    26     4     5   ar
    27     5    22    1
    28    22    23    2
    29    23    24    1
    30    24    25    1
    31    25    26    1
    32    26    27    1
    33     5     6   ar
    34    12    13    1
    35    13    14    1
    36    20    21   ar
    37    21    17   ar
    38    14     9    1
    39     6     1   ar
    40    36    32   ar
    41    27    22    1
    42    28    31    1
    43    36    37    1
@<TRIPOS>MOLECULE
*****
 39 43 0 0 0
SMALL
GASTEIGER

@<TRIPOS>ATOM
      1 C         141.1116  138.7618  161.0471 C.ar    1  UNL1       -0.0223
      2 C         141.6773  137.8556  162.1001 C.ar    1  UNL1       -0.0030
      3 C         141.6149  138.2541  163.5449 C.ar    1  UNL1        0.0143
      4 C         140.9869  139.5587  163.9367 C.ar    1  UNL1        0.0502
      5 C         140.4212  140.4649  162.8836 C.ar    1  UNL1        0.0089
      6 C         140.4836  140.0664  161.4389 C.ar    1  UNL1       -0.0034
      7 C         141.3607  137.1680  155.2680 C.2     1  UNL1        0.2317
      8 O         140.1504  137.3202  154.3952 O.2     1  UNL1       -0.2744
      9 N         141.2984  137.5665  156.7128 N.am    1  UNL1       -0.2792
     10 C         140.0258  138.1171  157.2848 C.3     1  UNL1        0.0937
     11 C         139.9635  138.5155  158.7295 C.3     1  UNL1        0.0259
     12 C         141.1739  138.3633  159.6023 C.3     1  UNL1        0.0257
     13 C         142.4465  137.8127  159.0304 C.3     1  UNL1        0.0259
     14 C         142.5088  137.4142  157.5857 C.3     1  UNL1        0.0937
     15 C         142.6334  136.6174  154.6961 C.3     1  UNL1        0.1325
     16 C         144.4998  131.8962  156.1479 C.3     1  UNL1        0.1321
     17 N         143.7584  132.9720  155.4111 N.ar    1  UNL1       -0.3061
     18 C         142.8646  132.7717  154.2232 C.ar    1  UNL1        0.1783
     19 N         142.3343  134.1130  153.8108 N.ar    1  UNL1       -0.2278
     20 C         142.9005  135.1421  154.7438 C.ar    1  UNL1        0.0870
     21 C         143.7805  134.4369  155.7328 C.ar    1  UNL1        0.0925
     22 C         139.7932  141.7696  163.2754 C.2     1  UNL1       -0.0253
     23 C         138.3440  141.8190  163.6593 C.2     1  UNL1       -0.0303
     24 C         137.7160  143.1236  164.0511 C.3     1  UNL1        0.0257
     25 C         138.5372  144.3789  164.0589 C.3     1  UNL1        0.0050
     26 C         139.9864  144.3295  163.6749 C.3     1  UNL1        0.0050
     27 C         140.6144  143.0248  163.2832 C.3     1  UNL1        0.0261
     28 N         140.9246  139.9572  165.3814 N.am    1  UNL1       -0.2779
     29 C         139.7729  139.5121  166.2331 C.2     1  UNL1        0.2837
     30 O         138.6835  138.6686  165.6401 O.2     1  UNL1       -0.2665
     31 H         141.6396  140.5109  165.7706 H       1  UNL1        0.1553
     32 C         139.7105  139.9106  167.6779 C.ar    1  UNL1        0.1959
     33 N         140.7581  140.6804  168.4262 N.ar    1  UNL1       -0.2123
     34 C         140.2847  140.8548  169.8388 C.ar    1  UNL1        0.1678
     35 C         138.9445  140.1928  169.9635 C.ar    1  UNL1        0.1036
     36 N         138.5896  139.6093  168.6280 N.ar    1  UNL1       -0.3319
     37 H         137.7657  139.1152  168.4129 H       1  UNL1        0.1676
     38 C         141.0220  141.5663  170.9343 C.1     1  UNL1        0.1214
     39 N         141.7593  142.2778  172.0298 N.1     1  UNL1       -0.1892
@<TRIPOS>BOND
     1    16    17    1
     2    17    18   ar
     3    18    19   ar
     4    19    20   ar
     5    20    15    1
     6    15     7    1
     7     7     8    2
     8     7     9   am
     9     9    10    1
    10    10    11    1
    11    11    12    1
    12    12     1    1
    13     1     2   ar
    14     2     3   ar
    15     3     4   ar
    16     4    28    1
    17    28    29   am
    18    29    30    2
    19    29    32    1
    20    32    33   ar
    21    33    34   ar
    22    34    38    1
    23    38    39    3
    24    34    35   ar
    25    35    36   ar
    26     4     5   ar
    27     5    22    1
    28    22    23    2
    29    23    24    1
    30    24    25    1
    31    25    26    1
    32    26    27    1
    33     5     6   ar
    34    12    13    1
    35    13    14    1
    36    20    21   ar
    37    21    17   ar
    38    14     9    1
    39     6     1   ar
    40    36    32   ar
    41    27    22    1
    42    28    31    1
    43    36    37    1
@<TRIPOS>MOLECULE
*****
 39 43 0 0 0
SMALL
GASTEIGER

@<TRIPOS>ATOM
      1 C         141.3727  138.8831  161.1743 C.ar    1  UNL1       -0.0223
      2 C         142.1511  138.1182  162.2033 C.ar    1  UNL1       -0.0030
      3 C         142.1774  138.5896  163.6271 C.ar    1  UNL1        0.0143
      4 C         141.4254  139.8260  164.0218 C.ar    1  UNL1        0.0502
      5 C         140.6470  140.5910  162.9927 C.ar    1  UNL1        0.0089
      6 C         140.6207  140.1195  161.5690 C.ar    1  UNL1       -0.0034
      7 C         141.2672  136.9976  155.4792 C.2     1  UNL1        0.2317
      8 O         139.9824  137.0199  154.7054 O.2     1  UNL1       -0.2744
      9 N         141.2936  137.4690  156.9030 N.am    1  UNL1       -0.2792
     10 C         140.0351  137.9627  157.5530 C.3     1  UNL1        0.0937
     11 C         140.0616  138.4341  158.9767 C.3     1  UNL1        0.0259
     12 C         141.3464  138.4117  159.7505 C.3     1  UNL1        0.0257
     13 C         142.6048  137.9180  159.1005 C.3     1  UNL1        0.0259
     14 C         142.5784  137.4466  157.6767 C.3     1  UNL1        0.0937
     15 C         142.5257  136.5038  154.8292 C.3     1  UNL1        0.1325
     16 C         144.7073  131.9698  156.4303 C.3     1  UNL1        0.1321
     17 N         143.9004  132.9694  155.6561 N.ar    1  UNL1       -0.3061
     18 C         143.0393  132.6739  154.4639 C.ar    1  UNL1        0.1783
     19 N         142.4195  133.9620  154.0090 N.ar    1  UNL1       -0.2278
     20 C         142.8976  135.0535  154.9201 C.ar    1  UNL1        0.0870
     21 C         143.8128  134.4401  155.9380 C.ar    1  UNL1        0.0925
     22 C         139.8950  141.8274  163.3874 C.2     1  UNL1       -0.0253
     23 C         140.5874  143.1581  163.3883 C.2     1  UNL1       -0.0303
     24 C         139.8354  144.3945  163.7830 C.3     1  UNL1        0.0257
     25 C         138.3910  144.3002  164.1767 C.3     1  UNL1        0.0050
     26 C         137.6987  142.9695  164.1757 C.3     1  UNL1        0.0050
     27 C         138.4507  141.7331  163.7811 C.3     1  UNL1        0.0261
     28 N         141.4517  140.2974  165.4455 N.am    1  UNL1       -0.2779
     29 C         142.5490  141.2062  165.9144 C.2     1  UNL1        0.2837
     30 O         143.6200  141.6436  164.9596 O.2     1  UNL1       -0.2665
     31 H         140.7488  140.0103  166.0722 H       1  UNL1        0.1553
     32 C         142.5754  141.6777  167.3382 C.ar    1  UNL1        0.1959
     33 N         141.5026  141.4515  168.3619 N.ar    1  UNL1       -0.2123
     34 C         141.9433  142.0921  169.6446 C.ar    1  UNL1        0.1678
     35 C         143.2886  142.7143  169.4136 C.ar    1  UNL1        0.1036
     36 N         143.6792  142.4582  167.9882 N.ar    1  UNL1       -0.3319
     37 H         144.5135  142.7509  167.5553 H       1  UNL1        0.1676
     38 C         141.1739  142.1078  170.9321 C.1     1  UNL1        0.1214
     39 N         140.4045  142.1235  172.2197 N.1     1  UNL1       -0.1892
@<TRIPOS>BOND
     1    16    17    1
     2    17    18   ar
     3    18    19   ar
     4    19    20   ar
     5    20    15    1
     6    15     7    1
     7     7     8    2
     8     7     9   am
     9     9    10    1
    10    10    11    1
    11    11    12    1
    12    12     1    1
    13     1     2   ar
    14     2     3   ar
    15     3     4   ar
    16     4    28    1
    17    28    29   am
    18    29    30    2
    19    29    32    1
    20    32    33   ar
    21    33    34   ar
    22    34    38    1
    23    38    39    3
    24    34    35   ar
    25    35    36   ar
    26     4     5   ar
    27     5    22    1
    28    22    23    2
    29    23    24    1
    30    24    25    1
    31    25    26    1
    32    26    27    1
    33     5     6   ar
    34    12    13    1
    35    13    14    1
    36    20    21   ar
    37    21    17   ar
    38    14     9    1
    39     6     1   ar
    40    36    32   ar
    41    27    22    1
    42    28    31    1
    43    36    37    1
@<TRIPOS>MOLECULE
*****
 39 43 0 0 0
SMALL
GASTEIGER

@<TRIPOS>ATOM
      1 C         140.9567  143.4601  160.7218 C.ar    1  UNL1       -0.0223
      2 C         141.9235  144.2051  161.5937 C.ar    1  UNL1       -0.0030
      3 C         142.3222  143.6400  162.9248 C.ar    1  UNL1        0.0143
      4 C         141.7540  142.3299  163.3839 C.ar    1  UNL1        0.0502
      5 C         140.7872  141.5849  162.5120 C.ar    1  UNL1        0.0089
      6 C         140.3885  142.1500  161.1810 C.ar    1  UNL1       -0.0034
      7 C         139.3619  145.7203  155.3975 C.2     1  UNL1        0.2317
      8 O         138.3461  145.0082  154.5543 O.2     1  UNL1       -0.2744
      9 N         139.7606  145.1552  156.7286 N.am    1  UNL1       -0.2792
     10 C         139.1434  143.8781  157.2164 C.3     1  UNL1        0.0937
     11 C         139.5421  143.3131  158.5475 C.3     1  UNL1        0.0259
     12 C         140.5580  144.0252  159.3907 C.3     1  UNL1        0.0257
     13 C         141.1752  145.3023  158.9028 C.3     1  UNL1        0.0259
     14 C         140.7765  145.8673  157.5717 C.3     1  UNL1        0.0937
     15 C         139.9791  146.9974  154.9096 C.3     1  UNL1        0.1325
     16 C         138.5924  152.0923  154.9123 C.3     1  UNL1        0.1321
     17 N         138.7587  150.6589  155.3217 N.ar    1  UNL1       -0.3061
     18 C         138.2391  150.0364  156.5837 C.ar    1  UNL1        0.1783
     19 N         138.6331  148.5890  156.5829 N.ar    1  UNL1       -0.2278
     20 C         139.3961  148.3170  155.3204 C.ar    1  UNL1        0.0870
     21 C         139.4737  149.5963  154.5410 C.ar    1  UNL1        0.0925
     22 C         140.2190  140.2748  162.9712 C.2     1  UNL1       -0.0253
     23 C         140.7977  138.9873  162.4638 C.2     1  UNL1       -0.0303
     24 C         140.2295  137.6772  162.9230 C.3     1  UNL1        0.0257
     25 C         139.0826  137.6547  163.8895 C.3     1  UNL1        0.0050
     26 C         138.5039  138.9422  164.3969 C.3     1  UNL1        0.0050
     27 C         139.0721  140.2522  163.9377 C.3     1  UNL1        0.0261
     28 N         142.1527  141.7648  164.7150 N.am    1  UNL1       -0.2779
     29 C         141.4498  142.2143  165.9615 C.2     1  UNL1        0.2837
     30 O         140.3482  143.2290  165.8769 O.2     1  UNL1       -0.2665
     31 H         142.8756  141.0989  164.7705 H       1  UNL1        0.1553
     32 C         141.8484  141.6492  167.2926 C.ar    1  UNL1        0.1959
     33 N         142.1631  140.2113  167.5815 N.ar    1  UNL1       -0.2123
     34 C         142.5115  140.0962  169.0359 C.ar    1  UNL1        0.1678
     35 C         142.4121  141.4630  169.6459 C.ar    1  UNL1        0.1036
     36 N         142.0023  142.4228  168.5685 N.ar    1  UNL1       -0.3319
     37 H         141.8595  143.3906  168.6793 H       1  UNL1        0.1676
     38 C         142.8923  138.8357  169.7542 C.1     1  UNL1        0.1214
     39 N         143.2732  137.5752  170.4725 N.1     1  UNL1       -0.1892
@<TRIPOS>BOND
     1    16    17    1
     2    17    18   ar
     3    18    19   ar
     4    19    20   ar
     5    20    15    1
     6    15     7    1
     7     7     8    2
     8     7     9   am
     9     9    10    1
    10    10    11    1
    11    11    12    1
    12    12     1    1
    13     1     2   ar
    14     2     3   ar
    15     3     4   ar
    16     4    28    1
    17    28    29   am
    18    29    30    2
    19    29    32    1
    20    32    33   ar
    21    33    34   ar
    22    34    38    1
    23    38    39    3
    24    34    35   ar
    25    35    36   ar
    26     4     5   ar
    27     5    22    1
    28    22    23    2
    29    23    24    1
    30    24    25    1
    31    25    26    1
    32    26    27    1
    33     5     6   ar
    34    12    13    1
    35    13    14    1
    36    20    21   ar
    37    21    17   ar
    38    14     9    1
    39     6     1   ar
    40    36    32   ar
    41    27    22    1
    42    28    31    1
    43    36    37    1
@<TRIPOS>MOLECULE
*****
 39 43 0 0 0
SMALL
GASTEIGER

@<TRIPOS>ATOM
      1 C         140.5099  143.9704  160.9230 C.ar    1  UNL1       -0.0223
      2 C         141.0952  145.0368  161.8006 C.ar    1  UNL1       -0.0030
      3 C         141.2660  144.7886  163.2701 C.ar    1  UNL1        0.0143
      4 C         140.8515  143.4740  163.8619 C.ar    1  UNL1        0.0502
      5 C         140.2662  142.4077  162.9841 C.ar    1  UNL1        0.0089
      6 C         140.0954  142.6559  161.5147 C.ar    1  UNL1       -0.0034
      7 C         139.8265  144.9631  155.0452 C.2     1  UNL1        0.2317
      8 O         138.8323  144.1603  154.2597 O.2     1  UNL1       -0.2744
      9 N         139.9973  144.7149  156.5147 N.am    1  UNL1       -0.2792
     10 C         139.1740  143.6640  157.1985 C.3     1  UNL1        0.0937
     11 C         139.3448  143.4159  158.6679 C.3     1  UNL1        0.0259
     12 C         140.3391  144.2186  159.4535 C.3     1  UNL1        0.0257
     13 C         141.1624  145.2695  158.7697 C.3     1  UNL1        0.0259
     14 C         140.9916  145.5176  157.3003 C.3     1  UNL1        0.0937
     15 C         140.6499  146.0139  154.3614 C.3     1  UNL1        0.1325
     16 C         138.3539  150.5586  155.7595 C.3     1  UNL1        0.1321
     17 N         139.1314  149.5296  154.9937 N.ar    1  UNL1       -0.3061
     18 C         139.8168  149.7426  153.6765 C.ar    1  UNL1        0.1783
     19 N         140.4691  148.4515  153.2793 N.ar    1  UNL1       -0.2278
     20 C         140.1867  147.4407  154.3511 C.ar    1  UNL1        0.0870
     21 C         139.3600  148.1070  155.4106 C.ar    1  UNL1        0.0925
     22 C         139.8517  141.0931  163.5759 C.2     1  UNL1       -0.0253
     23 C         138.6578  141.0214  164.4812 C.2     1  UNL1       -0.0303
     24 C         138.2433  139.7068  165.0730 C.3     1  UNL1        0.0257
     25 C         139.0226  138.4641  164.7594 C.3     1  UNL1        0.0050
     26 C         140.2164  138.5359  163.8541 C.3     1  UNL1        0.0050
     27 C         140.6309  139.8504  163.2623 C.3     1  UNL1        0.0261
     28 N         141.0223  143.2258  165.3313 N.am    1  UNL1       -0.2779
     29 C         142.2969  142.6268  165.8475 C.2     1  UNL1        0.2837
     30 O         143.4008  142.2761  164.8943 O.2     1  UNL1       -0.2665
     31 H         140.2979  143.4560  165.9569 H       1  UNL1        0.1553
     32 C         142.4678  142.3786  167.3169 C.ar    1  UNL1        0.1959
     33 N         141.4242  141.8330  168.2461 N.ar    1  UNL1       -0.2123
     34 C         142.0236  141.7496  169.6186 C.ar    1  UNL1        0.1678
     35 C         143.4377  142.2436  169.5377 C.ar    1  UNL1        0.1036
     36 N         143.7122  142.6323  168.1152 N.ar    1  UNL1       -0.3319
     37 H         144.5602  142.9910  167.7666 H       1  UNL1        0.1676
     38 C         141.3307  141.2584  170.8550 C.1     1  UNL1        0.1214
     39 N         140.6378  140.7672  172.0913 N.1     1  UNL1       -0.1892
@<TRIPOS>BOND
     1    16    17    1
     2    17    18   ar
     3    18    19   ar
     4    19    20   ar
     5    20    15    1
     6    15     7    1
     7     7     8    2
     8     7     9   am
     9     9    10    1
    10    10    11    1
    11    11    12    1
    12    12     1    1
    13     1     2   ar
    14     2     3   ar
    15     3     4   ar
    16     4    28    1
    17    28    29   am
    18    29    30    2
    19    29    32    1
    20    32    33   ar
    21    33    34   ar
    22    34    38    1
    23    38    39    3
    24    34    35   ar
    25    35    36   ar
    26     4     5   ar
    27     5    22    1
    28    22    23    2
    29    23    24    1
    30    24    25    1
    31    25    26    1
    32    26    27    1
    33     5     6   ar
    34    12    13    1
    35    13    14    1
    36    20    21   ar
    37    21    17   ar
    38    14     9    1
    39     6     1   ar
    40    36    32   ar
    41    27    22    1
    42    28    31    1
    43    36    37    1
@<TRIPOS>MOLECULE
*****
 39 43 0 0 0
SMALL
GASTEIGER

@<TRIPOS>ATOM
      1 C         143.1041  140.0332  160.7419 C.ar    1  UNL1       -0.0223
      2 C         143.9784  139.1738  161.6061 C.ar    1  UNL1       -0.0030
      3 C         143.6762  139.0276  163.0681 C.ar    1  UNL1        0.0143
      4 C         142.4997  139.7407  163.6658 C.ar    1  UNL1        0.0502
      5 C         141.6254  140.6001  162.8015 C.ar    1  UNL1        0.0089
      6 C         141.9276  140.7464  161.3395 C.ar    1  UNL1       -0.0034
      7 C         144.3126  140.6182  154.8940 C.2     1  UNL1        0.2317
      8 O         143.8974  139.5454  153.9313 O.2     1  UNL1       -0.2744
      9 N         144.0105  140.4720  156.3560 N.am    1  UNL1       -0.2792
     10 C         143.2931  139.2529  156.8553 C.3     1  UNL1        0.0937
     11 C         142.9910  139.1067  158.3172 C.3     1  UNL1        0.0259
     12 C         143.4062  140.1795  159.2799 C.3     1  UNL1        0.0257
     13 C         144.1236  141.3985  158.7806 C.3     1  UNL1        0.0259
     14 C         144.4257  141.5448  157.3186 C.3     1  UNL1        0.0937
     15 C         145.0300  141.8373  154.3947 C.3     1  UNL1        0.1325
     16 C         150.2378  141.6951  155.2544 C.3     1  UNL1        0.1321
     17 N         148.9062  141.7303  154.5648 N.ar    1  UNL1       -0.3061
     18 C         148.6812  141.7328  153.0817 C.ar    1  UNL1        0.1783
     19 N         147.2016  141.7732  152.8375 N.ar    1  UNL1       -0.2278
     20 C         146.5125  141.7956  154.1697 C.ar    1  UNL1        0.0870
     21 C         147.5659  141.7691  155.2371 C.ar    1  UNL1        0.0925
     22 C         140.4488  141.3133  163.3992 C.2     1  UNL1       -0.0253
     23 C         140.6172  142.6903  163.9698 C.2     1  UNL1       -0.0303
     24 C         139.4407  143.4034  164.5675 C.3     1  UNL1        0.0257
     25 C         138.0958  142.7396  164.5945 C.3     1  UNL1        0.0050
     26 C         137.9275  141.3626  164.0239 C.3     1  UNL1        0.0050
     27 C         139.1040  140.6495  163.4262 C.3     1  UNL1        0.0261
     28 N         142.1975  139.5945  165.1277 N.am    1  UNL1       -0.2779
     29 C         142.8315  140.5225  166.1211 C.2     1  UNL1        0.2837
     30 O         143.7677  141.5967  165.6525 O.2     1  UNL1       -0.2665
     31 H         141.5831  138.8894  165.4352 H       1  UNL1        0.1553
     32 C         142.5293  140.3763  167.5831 C.ar    1  UNL1        0.1959
     33 N         141.8112  141.3768  168.4393 N.ar    1  UNL1       -0.2123
     34 C         141.7303  140.8229  169.8309 C.ar    1  UNL1        0.1678
     35 C         142.3984  139.4798  169.8347 C.ar    1  UNL1        0.1036
     36 N         142.8923  139.2039  168.4455 N.ar    1  UNL1       -0.3319
     37 H         143.3706  138.3952  168.1513 H       1  UNL1        0.1676
     38 C         141.0931  141.4940  171.0114 C.1     1  UNL1        0.1214
     39 N         140.4559  142.1651  172.1919 N.1     1  UNL1       -0.1892
@<TRIPOS>BOND
     1    16    17    1
     2    17    18   ar
     3    18    19   ar
     4    19    20   ar
     5    20    15    1
     6    15     7    1
     7     7     8    2
     8     7     9   am
     9     9    10    1
    10    10    11    1
    11    11    12    1
    12    12     1    1
    13     1     2   ar
    14     2     3   ar
    15     3     4   ar
    16     4    28    1
    17    28    29   am
    18    29    30    2
    19    29    32    1
    20    32    33   ar
    21    33    34   ar
    22    34    38    1
    23    38    39    3
    24    34    35   ar
    25    35    36   ar
    26     4     5   ar
    27     5    22    1
    28    22    23    2
    29    23    24    1
    30    24    25    1
    31    25    26    1
    32    26    27    1
    33     5     6   ar
    34    12    13    1
    35    13    14    1
    36    20    21   ar
    37    21    17   ar
    38    14     9    1
    39     6     1   ar
    40    36    32   ar
    41    27    22    1
    42    28    31    1
    43    36    37    1
@<TRIPOS>MOLECULE
*****
 39 43 0 0 0
SMALL
GASTEIGER

@<TRIPOS>ATOM
      1 C         142.6301  139.6355  160.8234 C.ar    1  UNL1       -0.0223
      2 C         143.6415  138.9027  161.6540 C.ar    1  UNL1       -0.0030
      3 C         143.7063  139.1350  163.1345 C.ar    1  UNL1        0.0143
      4 C         142.7596  140.1001  163.7844 C.ar    1  UNL1        0.0502
      5 C         141.7482  140.8330  162.9537 C.ar    1  UNL1        0.0089
      6 C         141.6834  140.6007  161.4732 C.ar    1  UNL1       -0.0034
      7 C         142.3710  138.7063  154.9014 C.2     1  UNL1        0.2317
      8 O         143.4306  139.2764  154.0057 O.2     1  UNL1       -0.2744
      9 N         142.4358  138.9386  156.3819 N.am    1  UNL1       -0.2792
     10 C         143.5601  139.7410  156.9667 C.3     1  UNL1        0.0937
     11 C         143.6249  139.9733  158.4471 C.3     1  UNL1        0.0259
     12 C         142.5653  139.4032  159.3428 C.3     1  UNL1        0.0257
     13 C         141.4409  138.6008  158.7580 C.3     1  UNL1        0.0259
     14 C         141.3762  138.3686  157.2776 C.3     1  UNL1        0.0937
     15 C         141.2466  137.9040  154.3166 C.3     1  UNL1        0.1325
     16 C         141.3772  132.7031  155.2189 C.3     1  UNL1        0.1321
     17 N         141.4639  134.0347  154.5340 N.ar    1  UNL1       -0.3061
     18 C         141.8277  134.2652  153.0971 C.ar    1  UNL1        0.1783
     19 N         141.7906  135.7427  152.8408 N.ar    1  UNL1       -0.2278
     20 C         141.4038  136.4253  154.1193 C.ar    1  UNL1        0.0870
     21 C         141.2019  135.3698  155.1657 C.ar    1  UNL1        0.0925
     22 C         140.8015  141.7981  163.6035 C.2     1  UNL1       -0.0253
     23 C         139.4422  141.3371  164.0393 C.2     1  UNL1       -0.0303
     24 C         138.4956  142.3023  164.6892 C.3     1  UNL1        0.0257
     25 C         138.9082  143.7285  164.9032 C.3     1  UNL1        0.0050
     26 C         140.2674  144.1895  164.4674 C.3     1  UNL1        0.0050
     27 C         141.2141  143.2243  163.8175 C.3     1  UNL1        0.0261
     28 N         142.8244  140.3325  165.2648 N.am    1  UNL1       -0.2779
     29 C         141.9647  139.5225  166.1893 C.2     1  UNL1        0.2837
     30 O         141.0402  138.4802  165.6334 O.2     1  UNL1       -0.2665
     31 H         143.4311  141.0165  165.6297 H       1  UNL1        0.1553
     32 C         142.0294  139.7548  167.6699 C.ar    1  UNL1        0.1959
     33 N         141.1903  140.7249  168.4476 N.ar    1  UNL1       -0.2123
     34 C         141.5869  140.6275  169.8910 C.ar    1  UNL1        0.1678
     35 C         142.6710  139.5971  170.0053 C.ar    1  UNL1        0.1036
     36 N         142.9445  139.0578  168.6326 N.ar    1  UNL1       -0.3319
     37 H         143.6081  138.3675  168.4036 H       1  UNL1        0.1676
     38 C         141.0020  141.4211  171.0215 C.1     1  UNL1        0.1214
     39 N         140.4171  142.2147  172.1521 N.1     1  UNL1       -0.1892
@<TRIPOS>BOND
     1    16    17    1
     2    17    18   ar
     3    18    19   ar
     4    19    20   ar
     5    20    15    1
     6    15     7    1
     7     7     8    2
     8     7     9   am
     9     9    10    1
    10    10    11    1
    11    11    12    1
    12    12     1    1
    13     1     2   ar
    14     2     3   ar
    15     3     4   ar
    16     4    28    1
    17    28    29   am
    18    29    30    2
    19    29    32    1
    20    32    33   ar
    21    33    34   ar
    22    34    38    1
    23    38    39    3
    24    34    35   ar
    25    35    36   ar
    26     4     5   ar
    27     5    22    1
    28    22    23    2
    29    23    24    1
    30    24    25    1
    31    25    26    1
    32    26    27    1
    33     5     6   ar
    34    12    13    1
    35    13    14    1
    36    20    21   ar
    37    21    17   ar
    38    14     9    1
    39     6     1   ar
    40    36    32   ar
    41    27    22    1
    42    28    31    1
    43    36    37    1
@<TRIPOS>MOLECULE
*****
 39 43 0 0 0
SMALL
GASTEIGER

@<TRIPOS>ATOM
      1 C         140.4064  139.0029  161.3690 C.ar    1  UNL1       -0.0223
      2 C         140.0876  137.8004  162.2069 C.ar    1  UNL1       -0.0030
      3 C         139.5326  137.9754  163.5895 C.ar    1  UNL1        0.0143
      4 C         139.2966  139.3529  164.1341 C.ar    1  UNL1        0.0502
      5 C         139.6155  140.5555  163.2961 C.ar    1  UNL1        0.0089
      6 C         140.1704  140.3805  161.9136 C.ar    1  UNL1       -0.0034
      7 C         142.6262  138.3030  155.8388 C.2     1  UNL1        0.2317
      8 O         144.0695  138.6071  155.5659 O.2     1  UNL1       -0.2744
      9 N         142.0713  138.4780  157.2214 N.am    1  UNL1       -0.2792
     10 C         142.9596  138.9571  158.3310 C.3     1  UNL1        0.0937
     11 C         142.4046  139.1321  159.7135 C.3     1  UNL1        0.0259
     12 C         140.9614  138.8279  159.9864 C.3     1  UNL1        0.0257
     13 C         140.0730  138.3487  158.8768 C.3     1  UNL1        0.0259
     14 C         140.6280  138.1738  157.4943 C.3     1  UNL1        0.0937
     15 C         141.7379  137.8238  154.7292 C.3     1  UNL1        0.1325
     16 C         141.3609  132.5751  155.1647 C.3     1  UNL1        0.1321
     17 N         141.5119  133.9515  154.5881 N.ar    1  UNL1       -0.3061
     18 C         141.6962  134.2841  153.1370 C.ar    1  UNL1        0.1783
     19 N         141.8033  135.7753  153.0133 N.ar    1  UNL1       -0.2278
     20 C         141.6852  136.3641  154.3878 C.ar    1  UNL1        0.0870
     21 C         141.5051  135.2370  155.3611 C.ar    1  UNL1        0.0925
     22 C         139.3794  141.9331  163.8407 C.2     1  UNL1       -0.0253
     23 C         137.9882  142.4918  163.8901 C.2     1  UNL1       -0.0303
     24 C         137.7521  143.8694  164.4347 C.3     1  UNL1        0.0257
     25 C         138.9073  144.6882  164.9298 C.3     1  UNL1        0.0050
     26 C         140.2985  144.1295  164.8804 C.3     1  UNL1        0.0050
     27 C         140.5345  142.7519  164.3358 C.3     1  UNL1        0.0261
     28 N         138.7417  139.5280  165.5166 N.am    1  UNL1       -0.2779
     29 C         139.6708  139.6476  166.6881 C.2     1  UNL1        0.2837
     30 O         141.1548  139.5921  166.4770 O.2     1  UNL1       -0.2665
     31 H         137.7676  139.5644  165.6551 H       1  UNL1        0.1553
     32 C         139.1159  139.8226  168.0707 C.ar    1  UNL1        0.1959
     33 N         137.9419  139.0895  168.6489 N.ar    1  UNL1       -0.2123
     34 C         137.7380  139.5753  170.0533 C.ar    1  UNL1        0.1678
     35 C         138.7860  140.6086  170.3431 C.ar    1  UNL1        0.1036
     36 N         139.6376  140.7615  169.1178 N.ar    1  UNL1       -0.3319
     37 H         140.4043  141.3710  169.0182 H       1  UNL1        0.1676
     38 C         136.6731  139.1095  171.0015 C.1     1  UNL1        0.1214
     39 N         135.6082  138.6437  171.9496 N.1     1  UNL1       -0.1892
@<TRIPOS>BOND
     1    16    17    1
     2    17    18   ar
     3    18    19   ar
     4    19    20   ar
     5    20    15    1
     6    15     7    1
     7     7     8    2
     8     7     9   am
     9     9    10    1
    10    10    11    1
    11    11    12    1
    12    12     1    1
    13     1     2   ar
    14     2     3   ar
    15     3     4   ar
    16     4    28    1
    17    28    29   am
    18    29    30    2
    19    29    32    1
    20    32    33   ar
    21    33    34   ar
    22    34    38    1
    23    38    39    3
    24    34    35   ar
    25    35    36   ar
    26     4     5   ar
    27     5    22    1
    28    22    23    2
    29    23    24    1
    30    24    25    1
    31    25    26    1
    32    26    27    1
    33     5     6   ar
    34    12    13    1
    35    13    14    1
    36    20    21   ar
    37    21    17   ar
    38    14     9    1
    39     6     1   ar
    40    36    32   ar
    41    27    22    1
    42    28    31    1
    43    36    37    1
@<TRIPOS>MOLECULE
*****
 39 43 0 0 0
SMALL
GASTEIGER

@<TRIPOS>ATOM
      1 C         139.4918  142.6677  160.6263 C.ar    1  UNL1       -0.0223
      2 C         140.0650  143.9139  161.2332 C.ar    1  UNL1       -0.0030
      3 C         140.3732  143.9603  162.7005 C.ar    1  UNL1        0.0143
      4 C         140.1081  142.7605  163.5608 C.ar    1  UNL1        0.0502
      5 C         139.5349  141.5143  162.9538 C.ar    1  UNL1        0.0089
      6 C         139.2267  141.4679  161.4866 C.ar    1  UNL1       -0.0034
      7 C         138.2593  142.4822  154.7571 C.2     1  UNL1        0.2317
      8 O         138.7406  143.5795  153.8546 O.2     1  UNL1       -0.2744
      9 N         138.5675  142.5286  156.2244 N.am    1  UNL1       -0.2792
     10 C         139.3569  143.6722  156.7892 C.3     1  UNL1        0.0937
     11 C         139.6650  143.7186  158.2565 C.3     1  UNL1        0.0259
     12 C         139.1837  142.6213  159.1589 C.3     1  UNL1        0.0257
     13 C         138.3943  141.4778  158.5942 C.3     1  UNL1        0.0259
     14 C         138.0862  141.4314  157.1269 C.3     1  UNL1        0.0937
     15 C         137.4699  141.3387  154.1923 C.3     1  UNL1        0.1325
     16 C         132.3825  141.1995  155.5991 C.3     1  UNL1        0.1321
     17 N         133.6343  141.3503  154.7866 N.ar    1  UNL1       -0.3061
     18 C         133.7033  141.7109  153.3322 C.ar    1  UNL1        0.1783
     19 N         135.1486  141.7504  152.9326 N.ar    1  UNL1       -0.2278
     20 C         135.9727  141.4142  154.1400 C.ar    1  UNL1        0.0870
     21 C         135.0368  141.1670  155.2858 C.ar    1  UNL1        0.0925
     22 C         139.2698  140.3144  163.8141 C.2     1  UNL1       -0.0253
     23 C         138.2709  140.3977  164.9302 C.2     1  UNL1       -0.0303
     24 C         138.0058  139.1979  165.7905 C.3     1  UNL1        0.0257
     25 C         138.7396  137.9148  165.5348 C.3     1  UNL1        0.0050
     26 C         139.7384  137.8316  164.4188 C.3     1  UNL1        0.0050
     27 C         140.0035  139.0314  163.5585 C.3     1  UNL1        0.0261
     28 N         140.4162  142.8068  165.0281 N.am    1  UNL1       -0.2779
     29 C         141.6787  142.1868  165.5492 C.2     1  UNL1        0.2837
     30 O         142.6331  141.5205  164.6031 O.2     1  UNL1       -0.2665
     31 H         139.7898  143.2442  165.6491 H       1  UNL1        0.1553
     32 C         141.9869  142.2332  167.0166 C.ar    1  UNL1        0.1959
     33 N         140.9865  142.1452  168.1308 N.ar    1  UNL1       -0.2123
     34 C         141.7308  142.2332  169.4301 C.ar    1  UNL1        0.1678
     35 C         143.1913  142.3757  169.1189 C.ar    1  UNL1        0.1036
     36 N         143.3495  142.3756  167.6272 N.ar    1  UNL1       -0.3319
     37 H         144.1986  142.4551  167.1354 H       1  UNL1        0.1676
     38 C         141.1217  142.1870  170.8000 C.1     1  UNL1        0.1214
     39 N         140.5125  142.1407  172.1700 N.1     1  UNL1       -0.1892
@<TRIPOS>BOND
     1    16    17    1
     2    17    18   ar
     3    18    19   ar
     4    19    20   ar
     5    20    15    1
     6    15     7    1
     7     7     8    2
     8     7     9   am
     9     9    10    1
    10    10    11    1
    11    11    12    1
    12    12     1    1
    13     1     2   ar
    14     2     3   ar
    15     3     4   ar
    16     4    28    1
    17    28    29   am
    18    29    30    2
    19    29    32    1
    20    32    33   ar
    21    33    34   ar
    22    34    38    1
    23    38    39    3
    24    34    35   ar
    25    35    36   ar
    26     4     5   ar
    27     5    22    1
    28    22    23    2
    29    23    24    1
    30    24    25    1
    31    25    26    1
    32    26    27    1
    33     5     6   ar
    34    12    13    1
    35    13    14    1
    36    20    21   ar
    37    21    17   ar
    38    14     9    1
    39     6     1   ar
    40    36    32   ar
    41    27    22    1
    42    28    31    1
    43    36    37    1
