@<TRIPOS>MOLECULE
*****
 35 39 0 0 0
SMALL
GASTEIGER

@<TRIPOS>ATOM
      1 C         140.1791  143.0722  160.7081 C.ar    1  UNL1        0.0537
      2 C         139.6106  141.9027  159.9605 C.ar    1  UNL1        0.0060
      3 C         139.2728  140.6375  160.6919 C.ar    1  UNL1        0.0173
      4 C         139.5036  140.5418  162.1710 C.ar    1  UNL1        0.0594
      5 C         140.0721  141.7113  162.9186 C.ar    1  UNL1        0.0130
      6 C         140.4098  142.9765  162.1871 C.ar    1  UNL1        0.0057
      7 C         140.1889  141.3254  164.3634 C.ar    1  UNL1       -0.0091
      8 C         139.6927  139.9174  164.5087 C.ar    1  UNL1        0.0331
      9 N         139.2691  139.4330  163.1537 N.ar    1  UNL1       -0.3289
     10 C         138.7093  138.0779  162.8371 C.3     1  UNL1        0.1301
     11 C         139.6906  139.2582  165.8561 C.3     1  UNL1        0.0435
     12 C         140.1848  140.0071  167.0582 C.3     1  UNL1        0.0066
     13 C         140.6811  141.4152  166.9129 C.3     1  UNL1        0.0049
     14 C         140.6832  142.0743  165.5654 C.3     1  UNL1        0.0275
     15 C         141.1753  142.1640  168.1149 C.3     1  UNL1        0.0053
     16 C         140.2857  143.1623  168.7946 C.3     1  UNL1        0.0322
     17 C         140.7799  143.9112  169.9967 C.3     1  UNL1        0.1422
     18 O         142.1637  143.6618  170.5189 O.3     1  UNL1       -0.3538
     19 C         143.0534  142.6636  169.8392 C.3     1  UNL1        0.1422
     20 C         142.5592  141.9147  168.6372 C.3     1  UNL1        0.0322
     21 N         141.6784  144.3682  159.0280 N.am    1  UNL1       -0.2761
     22 C         140.5169  144.3375  159.9766 C.2     1  UNL1        0.2490
     23 O         139.6932  145.5721  160.1938 O.2     1  UNL1       -0.2699
     24 C         141.4096  145.9075  156.9523 C.3     1  UNL1        0.0233
     25 C         142.0162  145.6335  158.2965 C.3     1  UNL1        0.0938
     26 C         142.5022  143.1336  158.8107 C.3     1  UNL1        0.0942
     27 C         143.6136  142.7968  159.7602 C.3     1  UNL1        0.0311
     28 C         143.8845  141.3662  160.1205 C.3     1  UNL1        0.0868
     29 C         144.1124  140.9837  161.5529 C.2     1  UNL1        0.2225
     30 O         145.3379  141.4647  162.2717 O.2     1  UNL1       -0.2751
     31 N         143.1148  140.1202  162.2664 N.am    1  UNL1       -0.3060
     32 H         142.3105  139.8044  161.7946 H       1  UNL1        0.1494
     33 C         143.3427  139.7377  163.6988 C.3     1  UNL1        0.0717
     34 C         143.2446  138.7301  164.8057 C.3     1  UNL1        0.0213
     35 C         143.8355  140.0826  165.0728 C.3     1  UNL1        0.0213
@<TRIPOS>BOND
     1    24    25    1
     2    25    21    1
     3    21    26    1
     4    26    27    1
     5    27    28    1
     6    28    29    1
     7    29    30    2
     8    29    31   am
     9    31    33    1
    10    33    34    1
    11    34    35    1
    12    21    22   am
    13    22    23    2
    14    22     1    1
    15     1     2   ar
    16     2     3   ar
    17     3     4   ar
    18     4     5   ar
    19     5     6   ar
    20     5     7   ar
    21     7     8   ar
    22     8     9   ar
    23     9    10    1
    24     8    11    1
    25    11    12    1
    26    12    13    1
    27    13    15    1
    28    15    16    1
    29    16    17    1
    30    17    18    1
    31    18    19    1
    32    19    20    1
    33    13    14    1
    34    35    33    1
    35     6     1   ar
    36    14     7    1
    37     9     4   ar
    38    20    15    1
    39    31    32    1
@<TRIPOS>MOLECULE
*****
 35 39 0 0 0
SMALL
GASTEIGER

@<TRIPOS>ATOM
      1 C         141.9752  140.7752  160.1462 C.ar    1  UNL1        0.0537
      2 C         141.4841  141.9650  159.3761 C.ar    1  UNL1        0.0060
      3 C         140.8391  143.1111  160.0975 C.ar    1  UNL1        0.0173
      4 C         140.6852  143.0673  161.5889 C.ar    1  UNL1        0.0594
      5 C         141.1763  141.8774  162.3590 C.ar    1  UNL1        0.0130
      6 C         141.8213  140.7314  161.6376 C.ar    1  UNL1        0.0057
      7 C         140.8894  142.1151  163.8120 C.ar    1  UNL1       -0.0091
      8 C         140.2209  143.4518  163.9399 C.ar    1  UNL1        0.0331
      9 N         140.0947  144.0403  162.5660 N.ar    1  UNL1       -0.3289
     10 C         139.4851  145.3686  162.2284 C.3     1  UNL1        0.1301
     11 C         139.8135  143.9603  165.2910 C.3     1  UNL1        0.0435
     12 C         140.0745  143.1322  166.5142 C.3     1  UNL1        0.0066
     13 C         140.7430  141.7955  166.3862 C.3     1  UNL1        0.0049
     14 C         141.1504  141.2869  165.0351 C.3     1  UNL1        0.0275
     15 C         141.0040  140.9673  167.6093 C.3     1  UNL1        0.0053
     16 C         142.2758  140.1804  167.7248 C.3     1  UNL1        0.0322
     17 C         142.5369  139.3522  168.9479 C.3     1  UNL1        0.1422
     18 O         141.5262  139.3110  170.0554 O.3     1  UNL1       -0.3538
     19 C         140.2544  140.0978  169.9399 C.3     1  UNL1        0.1422
     20 C         139.9933  140.9260  168.7169 C.3     1  UNL1        0.0322
     21 N         141.7715  138.6184  158.7119 N.am    1  UNL1       -0.2761
     22 C         142.6203  139.6290  159.4248 C.2     1  UNL1        0.2490
     23 O         144.1141  139.4935  159.4164 O.2     1  UNL1       -0.2699
     24 C         141.7836  136.9153  156.7499 C.3     1  UNL1        0.0233
     25 C         142.4166  137.4723  157.9905 C.3     1  UNL1        0.0938
     26 C         140.2777  138.7539  158.7203 C.3     1  UNL1        0.0942
     27 C         139.4982  138.3866  159.9482 C.3     1  UNL1        0.0311
     28 C         138.4523  139.3211  160.4801 C.3     1  UNL1        0.0868
     29 C         138.3254  139.5415  161.9583 C.2     1  UNL1        0.2225
     30 O         137.7395  140.8207  162.4782 O.2     1  UNL1       -0.2751
     31 N         138.7842  138.4827  162.9166 N.am    1  UNL1       -0.3060
     32 H         139.1687  137.6431  162.5753 H       1  UNL1        0.1494
     33 C         138.6572  138.7031  164.3948 C.3     1  UNL1        0.0717
     34 C         138.0910  139.4757  165.5491 C.3     1  UNL1        0.0213
     35 C         139.0035  138.3122  165.8010 C.3     1  UNL1        0.0213
@<TRIPOS>BOND
     1    24    25    1
     2    25    21    1
     3    21    26    1
     4    26    27    1
     5    27    28    1
     6    28    29    1
     7    29    30    2
     8    29    31   am
     9    31    33    1
    10    33    34    1
    11    34    35    1
    12    21    22   am
    13    22    23    2
    14    22     1    1
    15     1     2   ar
    16     2     3   ar
    17     3     4   ar
    18     4     5   ar
    19     5     6   ar
    20     5     7   ar
    21     7     8   ar
    22     8     9   ar
    23     9    10    1
    24     8    11    1
    25    11    12    1
    26    12    13    1
    27    13    15    1
    28    15    16    1
    29    16    17    1
    30    17    18    1
    31    18    19    1
    32    19    20    1
    33    13    14    1
    34    35    33    1
    35     6     1   ar
    36    14     7    1
    37     9     4   ar
    38    20    15    1
    39    31    32    1
@<TRIPOS>MOLECULE
*****
 35 39 0 0 0
SMALL
GASTEIGER

@<TRIPOS>ATOM
      1 C         140.6048  140.5128  160.0728 C.ar    1  UNL1        0.0537
      2 C         140.1719  141.7477  159.3397 C.ar    1  UNL1        0.0060
      3 C         139.8241  142.9905  160.1042 C.ar    1  UNL1        0.0173
      4 C         139.9092  142.9984  161.6017 C.ar    1  UNL1        0.0594
      5 C         140.3420  141.7634  162.3348 C.ar    1  UNL1        0.0130
      6 C         140.6899  140.5206  161.5704 C.ar    1  UNL1        0.0057
      7 C         140.3315  142.0686  163.8034 C.ar    1  UNL1       -0.0091
      8 C         139.8921  143.4921  163.9780 C.ar    1  UNL1        0.0331
      9 N         139.6311  144.0668  162.6173 N.ar    1  UNL1       -0.3289
     10 C         139.1725  145.4644  162.3236 C.3     1  UNL1        0.1301
     11 C         139.7865  144.0812  165.3534 C.3     1  UNL1        0.0435
     12 C         140.1203  143.2466  166.5544 C.3     1  UNL1        0.0066
     13 C         140.5597  141.8231  166.3799 C.3     1  UNL1        0.0049
     14 C         140.6653  141.2340  165.0043 C.3     1  UNL1        0.0275
     15 C         140.8935  140.9885  167.5807 C.3     1  UNL1        0.0053
     16 C         139.9318  140.9085  168.7291 C.3     1  UNL1        0.0322
     17 C         140.2656  140.0740  169.9300 C.3     1  UNL1        0.1422
     18 O         141.5609  139.3195  169.9825 O.3     1  UNL1       -0.3538
     19 C         142.5225  139.3996  168.8341 C.3     1  UNL1        0.1422
     20 C         142.1888  140.2341  167.6332 C.3     1  UNL1        0.0322
     21 N         142.3901  138.9058  159.0827 N.am    1  UNL1       -0.2761
     22 C         140.9526  139.2699  159.3084 C.2     1  UNL1        0.2490
     23 O         139.8629  138.3911  158.7697 O.2     1  UNL1       -0.2699
     24 C         142.8852  137.7165  156.8264 C.3     1  UNL1        0.0233
     25 C         142.7380  137.6629  158.3182 C.3     1  UNL1        0.0938
     26 C         143.4799  139.7846  159.6214 C.3     1  UNL1        0.0942
     27 C         144.0920  140.8404  158.7491 C.3     1  UNL1        0.0311
     28 C         144.0339  142.2811  159.1624 C.3     1  UNL1        0.0868
     29 C         144.1715  142.6525  160.6092 C.2     1  UNL1        0.2225
     30 O         145.2309  142.0063  161.4518 O.2     1  UNL1       -0.2751
     31 N         143.2497  143.6701  161.2132 N.am    1  UNL1       -0.3060
     32 H         142.5544  144.0942  160.6601 H       1  UNL1        0.1494
     33 C         143.3873  144.0414  162.6600 C.3     1  UNL1        0.0717
     34 C         143.7165  143.6611  164.0731 C.3     1  UNL1        0.0213
     35 C         143.2964  145.0650  163.7527 C.3     1  UNL1        0.0213
@<TRIPOS>BOND
     1    24    25    1
     2    25    21    1
     3    21    26    1
     4    26    27    1
     5    27    28    1
     6    28    29    1
     7    29    30    2
     8    29    31   am
     9    31    33    1
    10    33    34    1
    11    34    35    1
    12    21    22   am
    13    22    23    2
    14    22     1    1
    15     1     2   ar
    16     2     3   ar
    17     3     4   ar
    18     4     5   ar
    19     5     6   ar
    20     5     7   ar
    21     7     8   ar
    22     8     9   ar
    23     9    10    1
    24     8    11    1
    25    11    12    1
    26    12    13    1
    27    13    15    1
    28    15    16    1
    29    16    17    1
    30    17    18    1
    31    18    19    1
    32    19    20    1
    33    13    14    1
    34    35    33    1
    35     6     1   ar
    36    14     7    1
    37     9     4   ar
    38    20    15    1
    39    31    32    1
@<TRIPOS>MOLECULE
*****
 35 39 0 0 0
SMALL
GASTEIGER

@<TRIPOS>ATOM
      1 C         141.2087  141.1432  159.2520 C.ar    1  UNL1        0.0537
      2 C         142.5816  141.6224  158.8840 C.ar    1  UNL1        0.0060
      3 C         143.6159  141.8261  159.9511 C.ar    1  UNL1        0.0173
      4 C         143.2772  141.5506  161.3861 C.ar    1  UNL1        0.0594
      5 C         141.9044  141.0713  161.7541 C.ar    1  UNL1        0.0130
      6 C         140.8701  140.8676  160.6870 C.ar    1  UNL1        0.0057
      7 C         141.8621  140.8838  163.2417 C.ar    1  UNL1       -0.0091
      8 C         143.2090  141.2472  163.7932 C.ar    1  UNL1        0.0331
      9 N         144.0836  141.6592  162.6464 N.ar    1  UNL1       -0.3289
     10 C         145.5134  142.1022  162.7428 C.3     1  UNL1        0.1301
     11 C         143.4649  141.1559  165.2684 C.3     1  UNL1        0.0435
     12 C         142.3740  140.7012  166.1922 C.3     1  UNL1        0.0066
     13 C         141.0272  140.3378  165.6407 C.3     1  UNL1        0.0049
     14 C         140.7713  140.4292  164.1655 C.3     1  UNL1        0.0275
     15 C         139.9363  139.8832  166.5644 C.3     1  UNL1        0.0053
     16 C         138.8203  139.0273  166.0430 C.3     1  UNL1        0.0322
     17 C         137.7294  138.5726  166.9667 C.3     1  UNL1        0.1422
     18 O         137.7546  138.9738  168.4118 O.3     1  UNL1       -0.3538
     19 C         138.8706  139.8297  168.9332 C.3     1  UNL1        0.1422
     20 C         139.9614  140.2844  168.0096 C.3     1  UNL1        0.0322
     21 N         139.2587  142.0646  157.8033 N.am    1  UNL1       -0.2761
     22 C         140.1743  140.9394  158.1849 C.2     1  UNL1        0.2490
     23 O         140.0556  139.6105  157.4994 O.2     1  UNL1       -0.2699
     24 C         136.9622  141.1128  157.0481 C.3     1  UNL1        0.0233
     25 C         138.2244  141.8608  156.7362 C.3     1  UNL1        0.0938
     26 C         139.3774  143.3935  158.4888 C.3     1  UNL1        0.0942
     27 C         140.1447  144.5067  157.8390 C.3     1  UNL1        0.0311
     28 C         140.9329  145.4656  158.6812 C.3     1  UNL1        0.0868
     29 C         140.8435  145.3986  160.1770 C.2     1  UNL1        0.2225
     30 O         139.6052  145.8753  160.8764 O.2     1  UNL1       -0.2751
     31 N         141.9925  144.8548  160.9733 N.am    1  UNL1       -0.3060
     32 H         142.8052  144.5419  160.5142 H       1  UNL1        0.1494
     33 C         141.9031  144.7877  162.4691 C.3     1  UNL1        0.0717
     34 C         142.5091  145.0339  163.8190 C.3     1  UNL1        0.0213
     35 C         141.1424  144.4255  163.7101 C.3     1  UNL1        0.0213
@<TRIPOS>BOND
     1    24    25    1
     2    25    21    1
     3    21    26    1
     4    26    27    1
     5    27    28    1
     6    28    29    1
     7    29    30    2
     8    29    31   am
     9    31    33    1
    10    33    34    1
    11    34    35    1
    12    21    22   am
    13    22    23    2
    14    22     1    1
    15     1     2   ar
    16     2     3   ar
    17     3     4   ar
    18     4     5   ar
    19     5     6   ar
    20     5     7   ar
    21     7     8   ar
    22     8     9   ar
    23     9    10    1
    24     8    11    1
    25    11    12    1
    26    12    13    1
    27    13    15    1
    28    15    16    1
    29    16    17    1
    30    17    18    1
    31    18    19    1
    32    19    20    1
    33    13    14    1
    34    35    33    1
    35     6     1   ar
    36    14     7    1
    37     9     4   ar
    38    20    15    1
    39    31    32    1
@<TRIPOS>MOLECULE
*****
 35 39 0 0 0
SMALL
GASTEIGER

@<TRIPOS>ATOM
      1 C         141.0795  142.2553  166.4815 C.ar    1  UNL1        0.0537
      2 C         140.0850  143.3499  166.7315 C.ar    1  UNL1        0.0060
      3 C         139.3028  143.9277  165.5895 C.ar    1  UNL1        0.0173
      4 C         139.5151  143.4108  164.1975 C.ar    1  UNL1        0.0594
      5 C         140.5097  142.3162  163.9475 C.ar    1  UNL1        0.0130
      6 C         141.2919  141.7384  165.0895 C.ar    1  UNL1        0.0057
      7 C         140.5041  142.0114  162.4788 C.ar    1  UNL1       -0.0091
      8 C         139.5060  142.9177  161.8211 C.ar    1  UNL1        0.0331
      9 N         138.8948  143.7826  162.8832 N.ar    1  UNL1       -0.3289
     10 C         137.8472  144.8346  162.6689 C.3     1  UNL1        0.1301
     11 C         139.2827  142.8383  160.3399 C.3     1  UNL1        0.0435
     12 C         140.0575  141.8525  159.5164 C.3     1  UNL1        0.0066
     13 C         141.0556  140.9462  160.1741 C.3     1  UNL1        0.0049
     14 C         141.2789  141.0257  161.6553 C.3     1  UNL1        0.0275
     15 C         141.8304  139.9605  159.3507 C.3     1  UNL1        0.0053
     16 C         141.9843  138.5453  159.8235 C.3     1  UNL1        0.0322
     17 C         142.7591  137.5596  159.0000 C.3     1  UNL1        0.1422
     18 O         143.3799  137.9890  157.7039 O.3     1  UNL1       -0.3538
     19 C         143.2260  139.4042  157.2311 C.3     1  UNL1        0.1422
     20 C         142.4512  140.3900  158.0545 C.3     1  UNL1        0.0322
     21 N         141.1995  140.7376  168.5868 N.am    1  UNL1       -0.2761
     22 C         141.8618  141.6775  167.6236 C.2     1  UNL1        0.2490
     23 O         143.3065  142.0396  167.8023 O.2     1  UNL1       -0.2699
     24 C         142.6198  138.8091  169.5936 C.3     1  UNL1        0.0233
     25 C         141.9818  140.1598  169.7289 C.3     1  UNL1        0.0938
     26 C         139.7549  140.3756  168.4081 C.3     1  UNL1        0.0942
     27 C         139.3570  139.3678  167.3707 C.3     1  UNL1        0.0311
     28 C         138.3417  139.7270  166.3266 C.3     1  UNL1        0.0868
     29 C         138.4518  139.1539  164.9449 C.2     1  UNL1        0.2225
     30 O         139.0858  137.8102  164.7387 O.2     1  UNL1       -0.2751
     31 N         137.9279  139.9243  163.7693 N.am    1  UNL1       -0.3060
     32 H         137.5117  140.8062  163.9047 H       1  UNL1        0.1494
     33 C         138.0379  139.3511  162.3876 C.3     1  UNL1        0.0717
     34 C         137.6657  139.3823  160.9348 C.3     1  UNL1        0.0213
     35 C         138.6007  138.3272  161.4470 C.3     1  UNL1        0.0213
@<TRIPOS>BOND
     1    24    25    1
     2    25    21    1
     3    21    26    1
     4    26    27    1
     5    27    28    1
     6    28    29    1
     7    29    30    2
     8    29    31   am
     9    31    33    1
    10    33    34    1
    11    34    35    1
    12    21    22   am
    13    22    23    2
    14    22     1    1
    15     1     2   ar
    16     2     3   ar
    17     3     4   ar
    18     4     5   ar
    19     5     6   ar
    20     5     7   ar
    21     7     8   ar
    22     8     9   ar
    23     9    10    1
    24     8    11    1
    25    11    12    1
    26    12    13    1
    27    13    15    1
    28    15    16    1
    29    16    17    1
    30    17    18    1
    31    18    19    1
    32    19    20    1
    33    13    14    1
    34    35    33    1
    35     6     1   ar
    36    14     7    1
    37     9     4   ar
    38    20    15    1
    39    31    32    1
@<TRIPOS>MOLECULE
*****
 35 39 0 0 0
SMALL
GASTEIGER

@<TRIPOS>ATOM
      1 C         141.7558  142.9920  160.5046 C.ar    1  UNL1        0.0537
      2 C         142.4416  141.9713  159.6457 C.ar    1  UNL1        0.0060
      3 C         142.8840  140.6668  160.2395 C.ar    1  UNL1        0.0173
      4 C         142.6407  140.3832  161.6922 C.ar    1  UNL1        0.0594
      5 C         141.9550  141.4039  162.5511 C.ar    1  UNL1        0.0130
      6 C         141.5126  142.7084  161.9573 C.ar    1  UNL1        0.0057
      7 C         141.8525  140.8473  163.9402 C.ar    1  UNL1       -0.0091
      8 C         142.4748  139.4825  163.9398 C.ar    1  UNL1        0.0331
      9 N         142.9620  139.1956  162.5505 N.ar    1  UNL1       -0.3289
     10 C         143.6497  137.9414  162.0987 C.3     1  UNL1        0.1301
     11 C         142.5175  138.6773  165.2046 C.3     1  UNL1        0.0435
     12 C         141.9378  139.2369  166.4700 C.3     1  UNL1        0.0066
     13 C         141.3155  140.6017  166.4703 C.3     1  UNL1        0.0049
     14 C         141.2728  141.4069  165.2054 C.3     1  UNL1        0.0275
     15 C         140.7358  141.1614  167.7355 C.3     1  UNL1        0.0053
     16 C         139.8863  140.2959  168.6183 C.3     1  UNL1        0.0322
     17 C         139.3066  140.8555  169.8835 C.3     1  UNL1        0.1422
     18 O         139.5764  142.2805  170.2659 O.3     1  UNL1       -0.3538
     19 C         140.4259  143.1460  169.3832 C.3     1  UNL1        0.1422
     20 C         141.0056  142.5865  168.1180 C.3     1  UNL1        0.0322
     21 N         140.2294  144.3195  158.8743 N.am    1  UNL1       -0.2761
     22 C         141.3134  144.2966  159.9108 C.2     1  UNL1        0.2490
     23 O         141.9549  145.5781  160.3537 O.2     1  UNL1       -0.2699
     24 C         140.3644  146.0887  156.9764 C.3     1  UNL1        0.0233
     25 C         139.7869  145.6240  158.2805 C.3     1  UNL1        0.0938
     26 C         139.5879  143.0380  158.4314 C.3     1  UNL1        0.0942
     27 C         138.4492  142.4585  159.2174 C.3     1  UNL1        0.0311
     28 C         138.5561  141.0730  159.7821 C.3     1  UNL1        0.0868
     29 C         138.2928  140.8347  161.2394 C.2     1  UNL1        0.2225
     30 O         137.4021  141.7691  162.0032 O.2     1  UNL1       -0.2751
     31 N         138.9202  139.6619  161.9329 N.am    1  UNL1       -0.3060
     32 H         139.5048  139.0486  161.4316 H       1  UNL1        0.1494
     33 C         138.6570  139.4235  163.3902 C.3     1  UNL1        0.0717
     34 C         138.1279  139.9017  164.7099 C.3     1  UNL1        0.0213
     35 C         138.7300  138.5327  164.5948 C.3     1  UNL1        0.0213
@<TRIPOS>BOND
     1    24    25    1
     2    25    21    1
     3    21    26    1
     4    26    27    1
     5    27    28    1
     6    28    29    1
     7    29    30    2
     8    29    31   am
     9    31    33    1
    10    33    34    1
    11    34    35    1
    12    21    22   am
    13    22    23    2
    14    22     1    1
    15     1     2   ar
    16     2     3   ar
    17     3     4   ar
    18     4     5   ar
    19     5     6   ar
    20     5     7   ar
    21     7     8   ar
    22     8     9   ar
    23     9    10    1
    24     8    11    1
    25    11    12    1
    26    12    13    1
    27    13    15    1
    28    15    16    1
    29    16    17    1
    30    17    18    1
    31    18    19    1
    32    19    20    1
    33    13    14    1
    34    35    33    1
    35     6     1   ar
    36    14     7    1
    37     9     4   ar
    38    20    15    1
    39    31    32    1
@<TRIPOS>MOLECULE
*****
 35 39 0 0 0
SMALL
GASTEIGER

@<TRIPOS>ATOM
      1 C         142.2559  139.8239  159.4844 C.ar    1  UNL1        0.0537
      2 C         143.2566  140.8517  159.0459 C.ar    1  UNL1        0.0060
      3 C         143.7096  141.9136  160.0036 C.ar    1  UNL1        0.0173
      4 C         143.1620  141.9477  161.3996 C.ar    1  UNL1        0.0594
      5 C         142.1613  140.9199  161.8380 C.ar    1  UNL1        0.0130
      6 C         141.7083  139.8580  160.8804 C.ar    1  UNL1        0.0057
      7 C         141.8002  141.2042  163.2659 C.ar    1  UNL1       -0.0091
      8 C         142.5777  142.4076  163.7099 C.ar    1  UNL1        0.0331
      9 N         143.4193  142.8672  162.5565 N.ar    1  UNL1       -0.3289
     10 C         144.3542  144.0403  162.5594 C.3     1  UNL1        0.1301
     11 C         142.4188  142.9295  165.1072 C.3     1  UNL1        0.0435
     12 C         141.4824  142.2479  166.0605 C.3     1  UNL1        0.0066
     13 C         140.7049  141.0445  165.6164 C.3     1  UNL1        0.0049
     14 C         140.8638  140.5226  164.2191 C.3     1  UNL1        0.0275
     15 C         139.7685  140.3629  166.5696 C.3     1  UNL1        0.0053
     16 C         139.8814  140.6183  168.0434 C.3     1  UNL1        0.0322
     17 C         138.9450  139.9367  168.9966 C.3     1  UNL1        0.1422
     18 O         137.8958  138.9997  168.4760 O.3     1  UNL1       -0.3538
     19 C         137.7829  138.7443  167.0023 C.3     1  UNL1        0.1422
     20 C         138.7192  139.4258  166.0491 C.3     1  UNL1        0.0322
     21 N         140.5985  138.9948  157.6635 N.am    1  UNL1       -0.2761
     22 C         141.8028  138.7619  158.5267 C.2     1  UNL1        0.2490
     23 O         142.5542  137.4671  158.4324 O.2     1  UNL1       -0.2699
     24 C         140.3557  138.1130  155.2317 C.3     1  UNL1        0.0233
     25 C         140.1454  137.9328  156.7059 C.3     1  UNL1        0.0938
     26 C         139.8471  140.2896  157.7579 C.3     1  UNL1        0.0942
     27 C         138.4326  140.3013  158.2572 C.3     1  UNL1        0.0311
     28 C         138.1513  140.1079  159.7178 C.3     1  UNL1        0.0868
     29 C         138.1538  141.2873  160.6446 C.2     1  UNL1        0.2225
     30 O         138.3067  142.6739  160.0934 O.2     1  UNL1       -0.2751
     31 N         138.0035  141.0801  162.1226 N.am    1  UNL1       -0.3060
     32 H         137.9031  140.1699  162.4844 H       1  UNL1        0.1494
     33 C         138.0060  142.2594  163.0494 C.3     1  UNL1        0.0717
     34 C         137.7266  142.8517  164.3989 C.3     1  UNL1        0.0213
     35 C         138.2898  143.7099  163.3053 C.3     1  UNL1        0.0213
@<TRIPOS>BOND
     1    24    25    1
     2    25    21    1
     3    21    26    1
     4    26    27    1
     5    27    28    1
     6    28    29    1
     7    29    30    2
     8    29    31   am
     9    31    33    1
    10    33    34    1
    11    34    35    1
    12    21    22   am
    13    22    23    2
    14    22     1    1
    15     1     2   ar
    16     2     3   ar
    17     3     4   ar
    18     4     5   ar
    19     5     6   ar
    20     5     7   ar
    21     7     8   ar
    22     8     9   ar
    23     9    10    1
    24     8    11    1
    25    11    12    1
    26    12    13    1
    27    13    15    1
    28    15    16    1
    29    16    17    1
    30    17    18    1
    31    18    19    1
    32    19    20    1
    33    13    14    1
    34    35    33    1
    35     6     1   ar
    36    14     7    1
    37     9     4   ar
    38    20    15    1
    39    31    32    1
@<TRIPOS>MOLECULE
*****
 35 39 0 0 0
SMALL
GASTEIGER

@<TRIPOS>ATOM
      1 C         142.0735  140.3980  161.0829 C.ar    1  UNL1        0.0537
      2 C         141.2269  139.2932  160.5238 C.ar    1  UNL1        0.0060
      3 C         140.2652  138.5620  161.4129 C.ar    1  UNL1        0.0173
      4 C         140.1501  138.9357  162.8611 C.ar    1  UNL1        0.0594
      5 C         140.9967  140.0405  163.4201 C.ar    1  UNL1        0.0130
      6 C         141.9584  140.7717  162.5310 C.ar    1  UNL1        0.0057
      7 C         140.6671  140.1856  164.8762 C.ar    1  UNL1       -0.0091
      8 C         139.6167  139.1704  165.2171 C.ar    1  UNL1        0.0331
      9 N         139.2972  138.3979  163.9717 N.ar    1  UNL1       -0.3289
     10 C         138.3000  137.2833  163.8570 C.3     1  UNL1        0.1301
     11 C         139.0870  139.0806  166.6176 C.3     1  UNL1        0.0435
     12 C         139.6075  140.0060  167.6772 C.3     1  UNL1        0.0066
     13 C         140.6579  141.0212  167.3363 C.3     1  UNL1        0.0049
     14 C         141.1877  141.1110  165.9358 C.3     1  UNL1        0.0275
     15 C         141.1785  141.9466  168.3958 C.3     1  UNL1        0.0053
     16 C         140.2955  143.0258  168.9488 C.3     1  UNL1        0.0322
     17 C         140.8161  143.9512  170.0084 C.3     1  UNL1        0.1422
     18 O         142.2195  143.7974  170.5149 O.3     1  UNL1       -0.3538
     19 C         143.1025  142.7183  169.9619 C.3     1  UNL1        0.1422
     20 C         142.5820  141.7929  168.9024 C.3     1  UNL1        0.0322
     21 N         142.7360  142.5335  159.7596 N.am    1  UNL1       -0.2761
     22 C         143.0352  141.1292  160.1938 C.2     1  UNL1        0.2490
     23 O         144.2961  140.4561  159.7388 O.2     1  UNL1       -0.2699
     24 C         143.7604  142.9415  157.4071 C.3     1  UNL1        0.0233
     25 C         143.6977  143.2647  158.8705 C.3     1  UNL1        0.0938
     26 C         141.4750  143.2066  160.2146 C.3     1  UNL1        0.0942
     27 C         141.1593  144.5985  159.7530 C.3     1  UNL1        0.0311
     28 C         140.2912  145.4882  160.5925 C.3     1  UNL1        0.0868
     29 C         139.5932  144.9335  161.7987 C.2     1  UNL1        0.2225
     30 O         138.4377  143.9921  161.6297 O.2     1  UNL1       -0.2751
     31 N         140.0507  145.3201  163.1739 N.am    1  UNL1       -0.3060
     32 H         140.8091  145.9380  163.2848 H       1  UNL1        0.1494
     33 C         139.3527  144.7654  164.3801 C.3     1  UNL1        0.0717
     34 C         138.5668  144.9803  165.6396 C.3     1  UNL1        0.0213
     35 C         138.9296  143.5897  165.2100 C.3     1  UNL1        0.0213
@<TRIPOS>BOND
     1    24    25    1
     2    25    21    1
     3    21    26    1
     4    26    27    1
     5    27    28    1
     6    28    29    1
     7    29    30    2
     8    29    31   am
     9    31    33    1
    10    33    34    1
    11    34    35    1
    12    21    22   am
    13    22    23    2
    14    22     1    1
    15     1     2   ar
    16     2     3   ar
    17     3     4   ar
    18     4     5   ar
    19     5     6   ar
    20     5     7   ar
    21     7     8   ar
    22     8     9   ar
    23     9    10    1
    24     8    11    1
    25    11    12    1
    26    12    13    1
    27    13    15    1
    28    15    16    1
    29    16    17    1
    30    17    18    1
    31    18    19    1
    32    19    20    1
    33    13    14    1
    34    35    33    1
    35     6     1   ar
    36    14     7    1
    37     9     4   ar
    38    20    15    1
    39    31    32    1
@<TRIPOS>MOLECULE
*****
 35 39 0 0 0
SMALL
GASTEIGER

@<TRIPOS>ATOM
      1 C         139.8878  141.1970  158.7758 C.ar    1  UNL1        0.0537
      2 C         139.4904  142.5753  158.3372 C.ar    1  UNL1        0.0060
      3 C         139.5995  143.7268  159.2922 C.ar    1  UNL1        0.0173
      4 C         140.1059  143.5000  160.6858 C.ar    1  UNL1        0.0594
      5 C         140.5033  142.1217  161.1244 C.ar    1  UNL1        0.0130
      6 C         140.3943  140.9703  160.1694 C.ar    1  UNL1        0.0057
      7 C         140.9641  142.2036  162.5495 C.ar    1  UNL1       -0.0091
      8 C         140.8515  143.6326  162.9917 C.ar    1  UNL1        0.0331
      9 N         140.3211  144.4338  161.8399 N.ar    1  UNL1       -0.3289
     10 C         140.0530  145.9096  161.8418 C.3     1  UNL1        0.1301
     11 C         141.2464  144.0195  164.3861 C.3     1  UNL1        0.0435
     12 C         141.7540  142.9774  165.3383 C.3     1  UNL1        0.0066
     13 C         141.8666  141.5485  164.8961 C.3     1  UNL1        0.0049
     14 C         141.4717  141.1616  163.5016 C.3     1  UNL1        0.0275
     15 C         142.3742  140.5065  165.8482 C.3     1  UNL1        0.0053
     16 C         142.1459  140.6628  167.3225 C.3     1  UNL1        0.0322
     17 C         142.6535  139.6208  168.2746 C.3     1  UNL1        0.1422
     18 O         143.3893  138.4226  167.7526 O.3     1  UNL1       -0.3538
     19 C         143.6176  138.2663  166.2783 C.3     1  UNL1        0.1422
     20 C         143.1100  139.3082  165.3261 C.3     1  UNL1        0.0322
     21 N         140.9939  139.5634  157.0852 N.am    1  UNL1       -0.2761
     22 C         139.7788  140.0454  157.8207 C.2     1  UNL1        0.2490
     23 O         138.4546  139.3759  157.6013 O.2     1  UNL1       -0.2699
     24 C         140.4709  138.6529  154.7088 C.3     1  UNL1        0.0233
     25 C         140.8849  138.4118  156.1302 C.3     1  UNL1        0.0938
     26 C         142.3182  140.2329  157.3047 C.3     1  UNL1        0.0942
     27 C         143.4413  139.4791  157.9531 C.3     1  UNL1        0.0311
     28 C         143.4287  139.2419  159.4342 C.3     1  UNL1        0.0868
     29 C         143.9068  140.3128  160.3694 C.2     1  UNL1        0.2225
     30 O         143.8002  141.7559  159.9743 O.2     1  UNL1       -0.2751
     31 N         144.4914  139.9407  161.6997 N.am    1  UNL1       -0.3060
     32 H         144.5614  138.9935  161.9590 H       1  UNL1        0.1494
     33 C         144.9695  141.0115  162.6348 C.3     1  UNL1        0.0717
     34 C         145.6920  141.4164  163.8855 C.3     1  UNL1        0.0213
     35 C         145.0752  142.4615  163.0040 C.3     1  UNL1        0.0213
@<TRIPOS>BOND
     1    24    25    1
     2    25    21    1
     3    21    26    1
     4    26    27    1
     5    27    28    1
     6    28    29    1
     7    29    30    2
     8    29    31   am
     9    31    33    1
    10    33    34    1
    11    34    35    1
    12    21    22   am
    13    22    23    2
    14    22     1    1
    15     1     2   ar
    16     2     3   ar
    17     3     4   ar
    18     4     5   ar
    19     5     6   ar
    20     5     7   ar
    21     7     8   ar
    22     8     9   ar
    23     9    10    1
    24     8    11    1
    25    11    12    1
    26    12    13    1
    27    13    15    1
    28    15    16    1
    29    16    17    1
    30    17    18    1
    31    18    19    1
    32    19    20    1
    33    13    14    1
    34    35    33    1
    35     6     1   ar
    36    14     7    1
    37     9     4   ar
    38    20    15    1
    39    31    32    1
