@<TRIPOS>MOLECULE
*****
 39 41 0 0 0
SMALL
GASTEIGER

@<TRIPOS>ATOM
      1 C         140.9437  142.4886  164.6531 C.2     1  UNL1        0.2491
      2 O         142.3599  142.1807  164.2668 O.2     1  UNL1       -0.2699
      3 N         140.3443  143.8194  164.3073 N.am    1  UNL1       -0.2775
      4 C         139.6223  140.1170  167.5479 C.ar    1  UNL1        0.1723
      5 C         140.4392  141.1400  166.8157 C.ar    1  UNL1        0.0446
      6 C         140.1267  141.4655  165.3853 C.ar    1  UNL1        0.0568
      7 C         138.9971  140.7681  164.6869 C.ar    1  UNL1        0.0078
      8 C         138.1802  139.7452  165.4191 C.ar    1  UNL1        0.0402
      9 C         138.4928  139.4196  166.8496 C.ar    1  UNL1        0.1724
     10 O         137.6758  138.3966  167.5817 O.3     1  UNL1       -0.4684
     11 C         137.3593  137.0832  166.9299 C.3     1  UNL1        0.2526
     12 O         139.9349  139.7915  168.9784 O.3     1  UNL1       -0.4723
     13 C         139.6776  140.8067  170.0521 C.3     1  UNL1        0.2082
     14 C         140.7692  141.1757  171.0125 C.3     1  UNL1        0.0794
     15 C         141.8945  142.0608  170.5649 C.3     1  UNL1        0.1461
     16 C         140.4000  144.0920  169.9400 C.3     1  UNL1        0.1741
     17 O         141.6136  143.2466  169.6903 O.3     1  UNL1       -0.3510
     18 C         138.9279  144.1273  164.6937 C.3     1  UNL1        0.0757
     19 C         138.6387  144.8233  165.9905 C.3     1  UNL1        0.0215
     20 C         137.8009  143.7390  163.7832 C.3     1  UNL1        0.0215
     21 C         141.1612  144.8424  163.5752 C.3     1  UNL1        0.0986
     22 C         140.9149  145.0956  162.1174 C.3     1  UNL1        0.0771
     23 C         139.8647  146.0008  161.5449 C.3     1  UNL1        0.0740
     24 N         139.9762  145.9527  160.0498 N.3     1  UNL1       -0.2943
     25 C         141.0953  145.0177  159.6983 C.3     1  UNL1        0.1129
     26 C         141.6754  144.4880  160.9762 C.3     1  UNL1        0.1890
     27 H         140.1772  146.8847  159.6875 H       1  UNL1        0.1234
     28 O         142.8158  143.5206  161.0923 O.3     1  UNL1       -0.4369
     29 C         142.5675  142.0480  160.9515 C.2     1  UNL1        0.4018
     30 O         141.4621  141.5552  160.0653 O.2     1  UNL1       -0.2264
     31 N         143.4245  141.0682  161.6968 N.am    1  UNL1       -0.2665
     32 H         144.1500  141.3916  162.2785 H       1  UNL1        0.1531
     33 C         143.1761  139.5957  161.5559 C.3     1  UNL1        0.1194
     34 C         142.3792  138.8665  162.5967 C.ar    1  UNL1       -0.0025
     35 C         141.0994  138.1819  162.2180 C.ar    1  UNL1       -0.0026
     36 C         140.3024  137.4527  163.2587 C.ar    1  UNL1       -0.0003
     37 C         140.7852  137.4081  164.6782 C.ar    1  UNL1       -0.0000
     38 C         142.0650  138.0928  165.0569 C.ar    1  UNL1       -0.0003
     39 C         142.8620  138.8220  164.0162 C.ar    1  UNL1       -0.0026
@<TRIPOS>BOND
     1    16    17    1
     2    17    15    1
     3    15    14    1
     4    14    13    1
     5    13    12    1
     6    12     4    1
     7     4     5   ar
     8     5     6   ar
     9     6     1    1
    10     1     2    2
    11     1     3   am
    12     3    21    1
    13    22    21    1
    14    22    23    1
    15    23    24    1
    16    24    25    1
    17    25    26    1
    18    26    28    1
    19    28    29    1
    20    29    30    2
    21    29    31   am
    22    31    33    1
    23    33    34    1
    24    34    35   ar
    25    35    36   ar
    26    36    37   ar
    27    37    38   ar
    28    38    39   ar
    29     3    18    1
    30    18    19    1
    31    18    20    1
    32     6     7   ar
    33     7     8   ar
    34     8     9   ar
    35     9    10    1
    36    10    11    1
    37     9     4   ar
    38    26    22    1
    39    39    34   ar
    40    24    27    1
    41    31    32    1
@<TRIPOS>MOLECULE
*****
 39 41 0 0 0
SMALL
GASTEIGER

@<TRIPOS>ATOM
      1 C         139.4167  141.2969  165.9284 C.2     1  UNL1        0.2491
      2 O         139.4809  142.7396  165.5229 O.2     1  UNL1       -0.2699
      3 N         138.4217  140.3796  165.2816 N.am    1  UNL1       -0.2775
      4 C         142.5071  139.4834  167.6346 C.ar    1  UNL1        0.1723
      5 C         141.5762  140.0088  166.5823 C.ar    1  UNL1        0.0446
      6 C         140.3476  140.7715  166.9808 C.ar    1  UNL1        0.0568
      7 C         140.0499  141.0088  168.4317 C.ar    1  UNL1        0.0078
      8 C         140.9808  140.4834  169.4840 C.ar    1  UNL1        0.0402
      9 C         142.2094  139.7207  169.0854 C.ar    1  UNL1        0.1724
     10 O         143.1403  139.1953  170.1378 O.3     1  UNL1       -0.4684
     11 C         143.1607  137.7298  170.4571 C.3     1  UNL1        0.2526
     12 O         143.7357  138.7207  167.2360 O.3     1  UNL1       -0.4723
     13 C         143.8843  138.2197  165.8300 C.3     1  UNL1        0.2082
     14 C         144.4340  139.1231  164.7661 C.3     1  UNL1        0.0794
     15 C         143.8946  139.0503  163.3683 C.3     1  UNL1        0.1461
     16 C         141.5952  140.1404  162.8447 C.3     1  UNL1        0.1741
     17 O         142.4177  138.9214  163.1401 O.3     1  UNL1       -0.3510
     18 C         138.3576  138.9368  165.6871 C.3     1  UNL1        0.0757
     19 C         139.0785  137.8981  164.8800 C.3     1  UNL1        0.0215
     20 C         137.5726  138.5328  166.8998 C.3     1  UNL1        0.0215
     21 C         137.4909  140.9049  164.2292 C.3     1  UNL1        0.0986
     22 C         137.8059  140.6965  162.7776 C.3     1  UNL1        0.0771
     23 C         138.0438  139.3757  162.1077 C.3     1  UNL1        0.0740
     24 N         138.3232  139.6352  160.6570 N.3     1  UNL1       -0.2943
     25 C         138.2579  141.1165  160.4302 C.3     1  UNL1        0.1129
     26 C         137.9382  141.7724  161.7408 C.3     1  UNL1        0.1890
     27 H         137.6248  139.1657  160.0806 H       1  UNL1        0.1234
     28 O         137.7788  143.2456  161.9737 O.3     1  UNL1       -0.4369
     29 C         138.9852  144.0994  162.2294 C.2     1  UNL1        0.4018
     30 O         138.9391  145.5699  161.9367 O.2     1  UNL1       -0.2264
     31 N         140.2378  143.4829  162.7778 N.am    1  UNL1       -0.2665
     32 H         140.2681  142.5178  162.9700 H       1  UNL1        0.1531
     33 C         141.4442  144.3368  163.0336 C.3     1  UNL1        0.1194
     34 C         142.7566  143.6971  163.3778 C.ar    1  UNL1       -0.0025
     35 C         143.6794  143.2438  162.2855 C.ar    1  UNL1       -0.0026
     36 C         144.9918  142.6041  162.6297 C.ar    1  UNL1       -0.0003
     37 C         145.3813  142.4176  164.0661 C.ar    1  UNL1       -0.0000
     38 C         144.4585  142.8709  165.1585 C.ar    1  UNL1       -0.0003
     39 C         143.1462  143.5106  164.8143 C.ar    1  UNL1       -0.0026
@<TRIPOS>BOND
     1    16    17    1
     2    17    15    1
     3    15    14    1
     4    14    13    1
     5    13    12    1
     6    12     4    1
     7     4     5   ar
     8     5     6   ar
     9     6     1    1
    10     1     2    2
    11     1     3   am
    12     3    21    1
    13    22    21    1
    14    22    23    1
    15    23    24    1
    16    24    25    1
    17    25    26    1
    18    26    28    1
    19    28    29    1
    20    29    30    2
    21    29    31   am
    22    31    33    1
    23    33    34    1
    24    34    35   ar
    25    35    36   ar
    26    36    37   ar
    27    37    38   ar
    28    38    39   ar
    29     3    18    1
    30    18    19    1
    31    18    20    1
    32     6     7   ar
    33     7     8   ar
    34     8     9   ar
    35     9    10    1
    36    10    11    1
    37     9     4   ar
    38    26    22    1
    39    39    34   ar
    40    24    27    1
    41    31    32    1
@<TRIPOS>MOLECULE
*****
 39 41 0 0 0
SMALL
GASTEIGER

@<TRIPOS>ATOM
      1 C         140.3727  143.2951  163.0748 C.2     1  UNL1        0.2491
      2 O         138.8795  143.4266  163.0220 O.2     1  UNL1       -0.2699
      3 N         141.2330  144.1579  162.1998 N.am    1  UNL1       -0.2775
      4 C         141.8160  141.6419  166.3814 C.ar    1  UNL1        0.1723
      5 C         141.1830  142.6361  165.4537 C.ar    1  UNL1        0.0446
      6 C         141.0058  142.3007  164.0025 C.ar    1  UNL1        0.0568
      7 C         141.4616  140.9711  163.4789 C.ar    1  UNL1        0.0078
      8 C         142.0946  139.9768  164.4066 C.ar    1  UNL1        0.0402
      9 C         142.2718  140.3122  165.8578 C.ar    1  UNL1        0.1724
     10 O         142.9049  139.3178  166.7855 O.3     1  UNL1       -0.4684
     11 C         143.7302  138.1946  166.2311 C.3     1  UNL1        0.2526
     12 O         141.9933  141.9773  167.8326 O.3     1  UNL1       -0.4723
     13 C         143.3561  142.3078  168.3650 C.3     1  UNL1        0.2082
     14 C         143.5670  142.4631  169.8420 C.3     1  UNL1        0.0794
     15 C         142.5556  143.1981  170.6708 C.3     1  UNL1        0.1461
     16 C         139.9771  142.9164  170.5219 C.3     1  UNL1        0.1741
     17 O         141.2970  142.5072  171.1052 O.3     1  UNL1       -0.3510
     18 C         142.7263  144.0263  162.2526 C.3     1  UNL1        0.0757
     19 C         143.5100  144.7832  163.2836 C.3     1  UNL1        0.0215
     20 C         143.4360  143.1379  161.2743 C.3     1  UNL1        0.0215
     21 C         140.6000  145.1522  161.2722 C.3     1  UNL1        0.0986
     22 C         140.5621  144.8832  159.7970 C.3     1  UNL1        0.0771
     23 C         141.4751  145.4811  158.7680 C.3     1  UNL1        0.0740
     24 N         141.0818  144.9365  157.4268 N.3     1  UNL1       -0.2943
     25 C         139.9256  144.0020  157.6269 C.3     1  UNL1        0.1129
     26 C         139.6044  143.9691  159.0918 C.3     1  UNL1        0.1890
     27 H         141.8667  144.4326  157.0141 H       1  UNL1        0.1234
     28 O         138.5166  143.1635  159.7379 O.3     1  UNL1       -0.4369
     29 C         138.7728  141.7403  160.1361 C.2     1  UNL1        0.4018
     30 O         139.9398  140.9976  159.5558 O.2     1  UNL1       -0.2264
     31 N         137.8622  141.0596  161.1146 N.am    1  UNL1       -0.2665
     32 H         137.0963  141.5470  161.4955 H       1  UNL1        0.1531
     33 C         138.1185  139.6363  161.5127 C.3     1  UNL1        0.1194
     34 C         138.3460  139.2901  162.9544 C.ar    1  UNL1       -0.0025
     35 C         137.9444  140.2555  164.0299 C.ar    1  UNL1       -0.0026
     36 C         138.1717  139.9093  165.4717 C.ar    1  UNL1       -0.0003
     37 C         138.8008  138.5978  165.8379 C.ar    1  UNL1       -0.0000
     38 C         139.2024  137.6323  164.7623 C.ar    1  UNL1       -0.0003
     39 C         138.9750  137.9785  163.3206 C.ar    1  UNL1       -0.0026
@<TRIPOS>BOND
     1    16    17    1
     2    17    15    1
     3    15    14    1
     4    14    13    1
     5    13    12    1
     6    12     4    1
     7     4     5   ar
     8     5     6   ar
     9     6     1    1
    10     1     2    2
    11     1     3   am
    12     3    21    1
    13    22    21    1
    14    22    23    1
    15    23    24    1
    16    24    25    1
    17    25    26    1
    18    26    28    1
    19    28    29    1
    20    29    30    2
    21    29    31   am
    22    31    33    1
    23    33    34    1
    24    34    35   ar
    25    35    36   ar
    26    36    37   ar
    27    37    38   ar
    28    38    39   ar
    29     3    18    1
    30    18    19    1
    31    18    20    1
    32     6     7   ar
    33     7     8   ar
    34     8     9   ar
    35     9    10    1
    36    10    11    1
    37     9     4   ar
    38    26    22    1
    39    39    34   ar
    40    24    27    1
    41    31    32    1
@<TRIPOS>MOLECULE
*****
 39 41 0 0 0
SMALL
GASTEIGER

@<TRIPOS>ATOM
      1 C         140.2376  143.3050  163.2769 C.2     1  UNL1        0.2491
      2 O         138.7480  143.3037  163.1016 O.2     1  UNL1       -0.2699
      3 N         141.0915  144.2037  162.4323 N.am    1  UNL1       -0.2775
      4 C         142.0456  140.1705  164.9068 C.ar    1  UNL1        0.1723
      5 C         141.4096  141.0679  163.8870 C.ar    1  UNL1        0.0446
      6 C         140.8736  142.4076  164.2969 C.ar    1  UNL1        0.0568
      7 C         140.9735  142.8498  165.7267 C.ar    1  UNL1        0.0078
      8 C         141.6094  141.9524  166.7466 C.ar    1  UNL1        0.0402
      9 C         142.1455  140.6128  166.3366 C.ar    1  UNL1        0.1724
     10 O         142.7814  139.7154  167.3566 O.3     1  UNL1       -0.4684
     11 C         142.6075  140.0006  168.8190 C.3     1  UNL1        0.2526
     12 O         142.5816  138.8309  164.4969 O.3     1  UNL1       -0.4723
     13 C         142.5019  138.3980  163.0630 C.3     1  UNL1        0.2082
     14 C         143.7254  138.4446  162.1964 C.3     1  UNL1        0.0794
     15 C         144.1650  139.7437  161.5887 C.3     1  UNL1        0.1461
     16 C         143.0518  139.1513  159.3171 C.3     1  UNL1        0.1741
     17 O         144.0320  139.9633  160.1108 O.3     1  UNL1       -0.3510
     18 C         142.5812  144.2049  162.6076 C.3     1  UNL1        0.0757
     19 C         143.4405  143.3445  161.7294 C.3     1  UNL1        0.0215
     20 C         143.2116  145.0666  163.6612 C.3     1  UNL1        0.0215
     21 C         140.4556  145.1010  161.4123 C.3     1  UNL1        0.0986
     22 C         140.5214  144.7465  159.9563 C.3     1  UNL1        0.0771
     23 C         141.4926  145.3014  158.9568 C.3     1  UNL1        0.0740
     24 N         141.1991  144.6726  157.6269 N.3     1  UNL1       -0.2943
     25 C         140.0465  143.7292  157.8045 C.3     1  UNL1        0.1129
     26 C         139.6278  143.7748  159.2441 C.3     1  UNL1        0.1890
     27 H         142.0177  144.1609  157.2977 H       1  UNL1        0.1234
     28 O         138.5113  142.9871  159.8630 O.3     1  UNL1       -0.4369
     29 C         138.7453  141.5721  160.3021 C.2     1  UNL1        0.4018
     30 O         139.9498  140.8242  159.8122 O.2     1  UNL1       -0.2264
     31 N         137.7750  140.9049  161.2312 N.am    1  UNL1       -0.2665
     32 H         136.9844  141.3957  161.5528 H       1  UNL1        0.1531
     33 C         138.0091  139.4898  161.6704 C.3     1  UNL1        0.1194
     34 C         138.3017  139.1902  163.1107 C.ar    1  UNL1       -0.0025
     35 C         138.9235  137.8797  163.4929 C.ar    1  UNL1       -0.0026
     36 C         139.2161  137.5800  164.9332 C.ar    1  UNL1       -0.0003
     37 C         138.8869  138.5908  165.9914 C.ar    1  UNL1       -0.0000
     38 C         138.2651  139.9014  165.6093 C.ar    1  UNL1       -0.0003
     39 C         137.9725  140.2010  164.1689 C.ar    1  UNL1       -0.0026
@<TRIPOS>BOND
     1    16    17    1
     2    17    15    1
     3    15    14    1
     4    14    13    1
     5    13    12    1
     6    12     4    1
     7     4     5   ar
     8     5     6   ar
     9     6     1    1
    10     1     2    2
    11     1     3   am
    12     3    21    1
    13    22    21    1
    14    22    23    1
    15    23    24    1
    16    24    25    1
    17    25    26    1
    18    26    28    1
    19    28    29    1
    20    29    30    2
    21    29    31   am
    22    31    33    1
    23    33    34    1
    24    34    35   ar
    25    35    36   ar
    26    36    37   ar
    27    37    38   ar
    28    38    39   ar
    29     3    18    1
    30    18    19    1
    31    18    20    1
    32     6     7   ar
    33     7     8   ar
    34     8     9   ar
    35     9    10    1
    36    10    11    1
    37     9     4   ar
    38    26    22    1
    39    39    34   ar
    40    24    27    1
    41    31    32    1
@<TRIPOS>MOLECULE
*****
 39 41 0 0 0
SMALL
GASTEIGER

@<TRIPOS>ATOM
      1 C         139.5053  141.4555  164.7604 C.2     1  UNL1        0.2491
      2 O         139.1177  140.0242  164.5344 O.2     1  UNL1       -0.2699
      3 N         138.7965  142.5504  164.0195 N.am    1  UNL1       -0.2775
      4 C         143.0632  142.4851  166.1854 C.ar    1  UNL1        0.1723
      5 C         141.9669  142.1487  165.2186 C.ar    1  UNL1        0.0446
      6 C         140.6016  141.7920  165.7273 C.ar    1  UNL1        0.0568
      7 C         140.3327  141.7718  167.2028 C.ar    1  UNL1        0.0078
      8 C         141.4290  142.1083  168.1696 C.ar    1  UNL1        0.0402
      9 C         142.7943  142.4650  167.6609 C.ar    1  UNL1        0.1724
     10 O         143.8907  142.8015  168.6278 O.3     1  UNL1       -0.4684
     11 C         143.8913  142.1974  170.0008 C.3     1  UNL1        0.2526
     12 O         144.4285  142.8418  165.6767 O.3     1  UNL1       -0.4723
     13 C         144.7230  142.7733  164.2075 C.3     1  UNL1        0.2082
     14 C         144.2199  143.8487  163.2908 C.3     1  UNL1        0.0794
     15 C         143.8245  143.5105  161.8839 C.3     1  UNL1        0.1461
     16 C         141.8603  141.8410  161.5600 C.3     1  UNL1        0.1741
     17 O         143.3316  142.1327  161.5540 O.3     1  UNL1       -0.3510
     18 C         139.1841  143.9817  164.2456 C.3     1  UNL1        0.0757
     19 C         140.1955  144.6351  163.3511 C.3     1  UNL1        0.0215
     20 C         138.5602  144.7597  165.3661 C.3     1  UNL1        0.0215
     21 C         137.7002  142.2139  163.0527 C.3     1  UNL1        0.0986
     22 C         138.0297  141.9097  161.6213 C.3     1  UNL1        0.0771
     23 C         138.4875  142.9004  160.5922 C.3     1  UNL1        0.0740
     24 N         138.7001  142.1644  159.3025 N.3     1  UNL1       -0.2943
     25 C         138.3737  140.7188  159.5346 C.3     1  UNL1        0.1129
     26 C         137.9594  140.5615  160.9677 C.3     1  UNL1        0.1890
     27 H         139.6721  142.2567  159.0074 H       1  UNL1        0.1234
     28 O         137.5472  139.2807  161.6307 O.3     1  UNL1       -0.4369
     29 C         138.5893  138.3428  162.1637 C.2     1  UNL1        0.4018
     30 O         138.1850  137.1850  163.0275 O.2     1  UNL1       -0.2264
     31 N         140.0358  138.5625  161.8330 N.am    1  UNL1       -0.2665
     32 H         140.3012  139.3223  161.2661 H       1  UNL1        0.1531
     33 C         141.0779  137.6245  162.3661 C.3     1  UNL1        0.1194
     34 C         142.1122  138.1229  163.3314 C.ar    1  UNL1       -0.0025
     35 C         141.8857  137.9902  164.8082 C.ar    1  UNL1       -0.0026
     36 C         142.9200  138.4885  165.7735 C.ar    1  UNL1       -0.0003
     37 C         144.1809  139.1197  165.2620 C.ar    1  UNL1       -0.0000
     38 C         144.4075  139.2524  163.7851 C.ar    1  UNL1       -0.0003
     39 C         143.3732  138.7540  162.8198 C.ar    1  UNL1       -0.0026
@<TRIPOS>BOND
     1    16    17    1
     2    17    15    1
     3    15    14    1
     4    14    13    1
     5    13    12    1
     6    12     4    1
     7     4     5   ar
     8     5     6   ar
     9     6     1    1
    10     1     2    2
    11     1     3   am
    12     3    21    1
    13    22    21    1
    14    22    23    1
    15    23    24    1
    16    24    25    1
    17    25    26    1
    18    26    28    1
    19    28    29    1
    20    29    30    2
    21    29    31   am
    22    31    33    1
    23    33    34    1
    24    34    35   ar
    25    35    36   ar
    26    36    37   ar
    27    37    38   ar
    28    38    39   ar
    29     3    18    1
    30    18    19    1
    31    18    20    1
    32     6     7   ar
    33     7     8   ar
    34     8     9   ar
    35     9    10    1
    36    10    11    1
    37     9     4   ar
    38    26    22    1
    39    39    34   ar
    40    24    27    1
    41    31    32    1
@<TRIPOS>MOLECULE
*****
 39 41 0 0 0
SMALL
GASTEIGER

@<TRIPOS>ATOM
      1 C         143.1924  143.3129  163.6419 C.2     1  UNL1        0.2491
      2 O         142.7791  144.6949  163.2305 O.2     1  UNL1       -0.2699
      3 N         144.0170  142.4696  162.7151 N.am    1  UNL1       -0.2775
      4 C         141.0426  141.5543  166.4766 C.ar    1  UNL1        0.1723
      5 C         141.4540  142.0930  165.1386 C.ar    1  UNL1        0.0446
      6 C         142.7810  142.7742  164.9800 C.ar    1  UNL1        0.0568
      7 C         143.6966  142.9165  166.1596 C.ar    1  UNL1        0.0078
      8 C         143.2852  142.3778  167.4976 C.ar    1  UNL1        0.0402
      9 C         141.9582  141.6967  167.6562 C.ar    1  UNL1        0.1724
     10 O         141.5468  141.1579  168.9943 O.3     1  UNL1       -0.4684
     11 C         141.6535  142.0220  170.2157 C.3     1  UNL1        0.2526
     12 O         139.7156  140.8731  166.6351 O.3     1  UNL1       -0.4723
     13 C         139.5077  139.4965  166.0769 C.3     1  UNL1        0.2082
     14 C         138.4730  139.2659  165.0157 C.3     1  UNL1        0.0794
     15 C         138.8026  138.4276  163.8163 C.3     1  UNL1        0.1461
     16 C         141.0588  137.1660  163.5548 C.3     1  UNL1        0.1741
     17 O         140.2104  138.3767  163.3008 O.3     1  UNL1       -0.3510
     18 C         144.4302  141.0875  163.1266 C.3     1  UNL1        0.0757
     19 C         143.5298  139.9210  162.8467 C.3     1  UNL1        0.0215
     20 C         145.7439  140.8721  163.8178 C.3     1  UNL1        0.0215
     21 C         144.4284  143.0083  161.3771 C.3     1  UNL1        0.0986
     22 C         143.7843  142.4848  160.1276 C.3     1  UNL1        0.0771
     23 C         143.9681  141.1132  159.5490 C.3     1  UNL1        0.0740
     24 N         143.1408  141.0217  158.3011 N.3     1  UNL1       -0.2943
     25 C         142.4457  142.3369  158.1084 C.3     1  UNL1        0.1129
     26 C         142.8434  143.2411  159.2373 C.3     1  UNL1        0.1890
     27 H         142.4511  140.2764  158.3969 H       1  UNL1        0.1234
     28 O         142.3813  144.6537  159.4401 O.3     1  UNL1       -0.4369
     29 C         141.0424  144.9231  160.0603 C.2     1  UNL1        0.4018
     30 O         139.7926  144.4396  159.3862 O.2     1  UNL1       -0.2264
     31 N         140.9531  145.6760  161.3546 N.am    1  UNL1       -0.2665
     32 H         141.7734  145.9933  161.7970 H       1  UNL1        0.1531
     33 C         139.6142  145.9454  161.9747 C.3     1  UNL1        0.1194
     34 C         138.9834  144.9217  162.8716 C.ar    1  UNL1       -0.0025
     35 C         139.1204  145.0427  164.3604 C.ar    1  UNL1       -0.0026
     36 C         138.4897  144.0192  165.2574 C.ar    1  UNL1       -0.0003
     37 C         137.7219  142.8746  164.6655 C.ar    1  UNL1       -0.0000
     38 C         137.5849  142.7535  163.1766 C.ar    1  UNL1       -0.0003
     39 C         138.2157  143.7771  162.2797 C.ar    1  UNL1       -0.0026
@<TRIPOS>BOND
     1    16    17    1
     2    17    15    1
     3    15    14    1
     4    14    13    1
     5    13    12    1
     6    12     4    1
     7     4     5   ar
     8     5     6   ar
     9     6     1    1
    10     1     2    2
    11     1     3   am
    12     3    21    1
    13    22    21    1
    14    22    23    1
    15    23    24    1
    16    24    25    1
    17    25    26    1
    18    26    28    1
    19    28    29    1
    20    29    30    2
    21    29    31   am
    22    31    33    1
    23    33    34    1
    24    34    35   ar
    25    35    36   ar
    26    36    37   ar
    27    37    38   ar
    28    38    39   ar
    29     3    18    1
    30    18    19    1
    31    18    20    1
    32     6     7   ar
    33     7     8   ar
    34     8     9   ar
    35     9    10    1
    36    10    11    1
    37     9     4   ar
    38    26    22    1
    39    39    34   ar
    40    24    27    1
    41    31    32    1
@<TRIPOS>MOLECULE
*****
 39 41 0 0 0
SMALL
GASTEIGER

@<TRIPOS>ATOM
      1 C         143.4480  141.3275  162.4969 C.2     1  UNL1        0.2491
      2 O         144.1270  140.0524  162.0932 O.2     1  UNL1       -0.2699
      3 N         143.6456  142.5725  161.6840 N.am    1  UNL1       -0.2775
      4 C         140.2022  141.3999  164.7794 C.ar    1  UNL1        0.1723
      5 C         141.0789  141.3698  163.5627 C.ar    1  UNL1        0.0446
      6 C         142.5712  141.3576  163.7137 C.ar    1  UNL1        0.0568
      7 C         143.1868  141.3754  165.0814 C.ar    1  UNL1        0.0078
      8 C         142.3101  141.4055  166.2981 C.ar    1  UNL1        0.0402
      9 C         140.8178  141.4177  166.1471 C.ar    1  UNL1        0.1724
     10 O         139.9410  141.4478  167.3639 O.3     1  UNL1       -0.4684
     11 C         139.6065  140.1724  168.0790 C.3     1  UNL1        0.2526
     12 O         138.7098  141.4122  164.6284 O.3     1  UNL1       -0.4723
     13 C         138.0940  141.3678  163.2614 C.3     1  UNL1        0.2082
     14 C         137.8530  142.6409  162.5057 C.3     1  UNL1        0.0794
     15 C         137.6854  143.9336  163.2481 C.3     1  UNL1        0.1461
     16 C         138.7672  144.8443  165.4276 C.3     1  UNL1        0.1741
     17 O         138.8547  144.5466  163.9601 O.3     1  UNL1       -0.3510
     18 C         142.9665  143.8476  162.0878 C.3     1  UNL1        0.0757
     19 C         143.5976  144.7410  163.1142 C.3     1  UNL1        0.0215
     20 C         141.6562  144.2292  161.4653 C.3     1  UNL1        0.0215
     21 C         144.5223  142.5424  160.4673 C.3     1  UNL1        0.0986
     22 C         143.9086  142.4279  159.1033 C.3     1  UNL1        0.0771
     23 C         143.3738  143.5613  158.2791 C.3     1  UNL1        0.0740
     24 N         142.8567  142.9937  156.9905 N.3     1  UNL1       -0.2943
     25 C         143.0719  141.5095  157.0183 C.3     1  UNL1        0.1129
     26 C         143.7220  141.1598  158.3241 C.3     1  UNL1        0.1890
     27 H         143.3626  143.4022  156.2046 H       1  UNL1        0.1234
     28 O         144.1163  139.7836  158.7721 O.3     1  UNL1       -0.4369
     29 C         143.0625  138.7952  159.1748 C.2     1  UNL1        0.4018
     30 O         143.0231  137.4386  158.5358 O.2     1  UNL1       -0.2264
     31 N         142.0479  139.1633  160.2165 N.am    1  UNL1       -0.2665
     32 H         142.0737  140.0536  160.6359 H       1  UNL1        0.1531
     33 C         140.9940  138.1748  160.6193 C.3     1  UNL1        0.1194
     34 C         140.6642  137.9791  162.0694 C.ar    1  UNL1       -0.0025
     35 C         139.2342  137.9942  162.5220 C.ar    1  UNL1       -0.0026
     36 C         138.9043  137.7985  163.9722 C.ar    1  UNL1       -0.0003
     37 C         140.0045  137.5877  164.9698 C.ar    1  UNL1       -0.0000
     38 C         141.4346  137.5727  164.5171 C.ar    1  UNL1       -0.0003
     39 C         141.7644  137.7683  163.0670 C.ar    1  UNL1       -0.0026
@<TRIPOS>BOND
     1    16    17    1
     2    17    15    1
     3    15    14    1
     4    14    13    1
     5    13    12    1
     6    12     4    1
     7     4     5   ar
     8     5     6   ar
     9     6     1    1
    10     1     2    2
    11     1     3   am
    12     3    21    1
    13    22    21    1
    14    22    23    1
    15    23    24    1
    16    24    25    1
    17    25    26    1
    18    26    28    1
    19    28    29    1
    20    29    30    2
    21    29    31   am
    22    31    33    1
    23    33    34    1
    24    34    35   ar
    25    35    36   ar
    26    36    37   ar
    27    37    38   ar
    28    38    39   ar
    29     3    18    1
    30    18    19    1
    31    18    20    1
    32     6     7   ar
    33     7     8   ar
    34     8     9   ar
    35     9    10    1
    36    10    11    1
    37     9     4   ar
    38    26    22    1
    39    39    34   ar
    40    24    27    1
    41    31    32    1
@<TRIPOS>MOLECULE
*****
 39 41 0 0 0
SMALL
GASTEIGER

@<TRIPOS>ATOM
      1 C         139.3789  141.4399  163.1779 C.2     1  UNL1        0.2491
      2 O         139.3536  140.4365  162.0632 O.2     1  UNL1       -0.2699
      3 N         139.1812  142.8967  162.8802 N.am    1  UNL1       -0.2775
      4 C         141.1686  140.7134  166.6448 C.ar    1  UNL1        0.1723
      5 C         140.9455  141.1668  165.2325 C.ar    1  UNL1        0.0446
      6 C         139.6020  140.9865  164.5902 C.ar    1  UNL1        0.0568
      7 C         138.4816  140.3528  165.3603 C.ar    1  UNL1        0.0078
      8 C         138.7047  139.8995  166.7726 C.ar    1  UNL1        0.0402
      9 C         140.0482  140.0798  167.4148 C.ar    1  UNL1        0.1724
     10 O         140.2712  139.6263  168.8272 O.3     1  UNL1       -0.4684
     11 C         139.5908  140.3371  169.9594 C.3     1  UNL1        0.2526
     12 O         142.5121  140.8937  167.2870 O.3     1  UNL1       -0.4723
     13 C         142.8687  142.2036  167.9250 C.3     1  UNL1        0.2082
     14 C         143.4017  142.2345  169.3268 C.3     1  UNL1        0.0794
     15 C         142.4964  142.6002  170.4655 C.3     1  UNL1        0.1461
     16 C         140.3542  143.9739  169.9421 C.3     1  UNL1        0.1741
     17 O         141.7638  143.9091  170.4507 O.3     1  UNL1       -0.3510
     18 C         139.2066  143.9001  163.9950 C.3     1  UNL1        0.0757
     19 C         140.4879  144.5942  164.3503 C.3     1  UNL1        0.0215
     20 C         137.9505  144.2094  164.7544 C.3     1  UNL1        0.0215
     21 C         138.9582  143.3502  161.4679 C.3     1  UNL1        0.0986
     22 C         140.0967  143.9193  160.6743 C.3     1  UNL1        0.0771
     23 C         140.6786  145.2932  160.8278 C.3     1  UNL1        0.0740
     24 N         141.7947  145.4375  159.8362 N.3     1  UNL1       -0.2943
     25 C         141.9027  144.1526  159.0697 C.3     1  UNL1        0.1129
     26 C         140.8532  143.2143  159.5877 C.3     1  UNL1        0.1890
     27 H         142.6704  145.6234  160.3251 H       1  UNL1        0.1234
     28 O         140.6040  141.8165  159.1039 O.3     1  UNL1       -0.4369
     29 C         141.4254  140.6806  159.6376 C.2     1  UNL1        0.4018
     30 O         141.4291  139.3592  158.9275 O.2     1  UNL1       -0.2264
     31 N         142.2431  140.8657  160.8814 N.am    1  UNL1       -0.2665
     32 H         142.2407  141.7329  161.3475 H       1  UNL1        0.1531
     33 C         143.0644  139.7297  161.4151 C.3     1  UNL1        0.1194
     34 C         142.5365  138.8843  162.5361 C.ar    1  UNL1       -0.0025
     35 C         143.2269  138.8883  163.8678 C.ar    1  UNL1       -0.0026
     36 C         142.6991  138.0430  164.9889 C.ar    1  UNL1       -0.0003
     37 C         141.4808  137.1937  164.7783 C.ar    1  UNL1       -0.0000
     38 C         140.7903  137.1897  163.4466 C.ar    1  UNL1       -0.0003
     39 C         141.3182  138.0350  162.3255 C.ar    1  UNL1       -0.0026
@<TRIPOS>BOND
     1    16    17    1
     2    17    15    1
     3    15    14    1
     4    14    13    1
     5    13    12    1
     6    12     4    1
     7     4     5   ar
     8     5     6   ar
     9     6     1    1
    10     1     2    2
    11     1     3   am
    12     3    21    1
    13    22    21    1
    14    22    23    1
    15    23    24    1
    16    24    25    1
    17    25    26    1
    18    26    28    1
    19    28    29    1
    20    29    30    2
    21    29    31   am
    22    31    33    1
    23    33    34    1
    24    34    35   ar
    25    35    36   ar
    26    36    37   ar
    27    37    38   ar
    28    38    39   ar
    29     3    18    1
    30    18    19    1
    31    18    20    1
    32     6     7   ar
    33     7     8   ar
    34     8     9   ar
    35     9    10    1
    36    10    11    1
    37     9     4   ar
    38    26    22    1
    39    39    34   ar
    40    24    27    1
    41    31    32    1
@<TRIPOS>MOLECULE
*****
 39 41 0 0 0
SMALL
GASTEIGER

@<TRIPOS>ATOM
      1 C         142.7176  139.8633  162.5690 C.2     1  UNL1        0.2491
      2 O         142.0386  138.7661  161.8041 O.2     1  UNL1       -0.2699
      3 N         143.7791  140.6923  161.9086 N.am    1  UNL1       -0.2775
      4 C         141.1426  141.6145  165.7632 C.ar    1  UNL1        0.1723
      5 C         141.5251  141.3463  164.3378 C.ar    1  UNL1        0.0446
      6 C         142.3352  140.1315  163.9945 C.ar    1  UNL1        0.0568
      7 C         142.7628  139.1848  165.0766 C.ar    1  UNL1        0.0078
      8 C         142.3804  139.4530  166.5020 C.ar    1  UNL1        0.0402
      9 C         141.5703  140.6679  166.8453 C.ar    1  UNL1        0.1724
     10 O         141.1878  140.9361  168.2707 O.3     1  UNL1       -0.4684
     11 C         139.9745  140.2783  168.8582 C.3     1  UNL1        0.2526
     12 O         140.3325  142.8294  166.1065 O.3     1  UNL1       -0.4723
     13 C         139.8956  143.7702  165.0231 C.3     1  UNL1        0.2082
     14 C         138.5619  143.5853  164.3620 C.3     1  UNL1        0.0794
     15 C         138.0998  144.5601  163.3197 C.3     1  UNL1        0.1461
     16 C         139.7441  145.9709  161.8859 C.3     1  UNL1        0.1741
     17 O         138.8957  144.7466  162.0620 O.3     1  UNL1       -0.3510
     18 C         144.4580  141.7894  162.6737 C.3     1  UNL1        0.0757
     19 C         145.6217  141.4728  163.5656 C.3     1  UNL1        0.0215
     20 C         143.9733  143.2033  162.5468 C.3     1  UNL1        0.0215
     21 C         144.1615  140.4241  160.4833 C.3     1  UNL1        0.0986
     22 C         143.7765  141.3963  159.4078 C.3     1  UNL1        0.0771
     23 C         144.6248  142.5198  158.8899 C.3     1  UNL1        0.0740
     24 N         143.8482  143.2335  157.8234 N.3     1  UNL1       -0.2943
     25 C         142.5198  142.5512  157.6822 C.3     1  UNL1        0.1129
     26 C         142.4755  141.4158  158.6614 C.3     1  UNL1        0.1890
     27 H         144.3548  143.1911  156.9392 H       1  UNL1        0.1234
     28 O         141.3311  140.4665  158.8594 O.3     1  UNL1       -0.4369
     29 C         140.2525  140.7884  159.8507 C.2     1  UNL1        0.4018
     30 O         139.8249  142.2112  160.0582 O.2     1  UNL1       -0.2264
     31 N         139.6013  139.6877  160.6345 N.am    1  UNL1       -0.2665
     32 H         139.8819  138.7539  160.4984 H       1  UNL1        0.1531
     33 C         138.5226  140.0097  161.6258 C.3     1  UNL1        0.1194
     34 C         138.5916  139.4526  163.0168 C.ar    1  UNL1       -0.0025
     35 C         138.0703  140.2542  164.1725 C.ar    1  UNL1       -0.0026
     36 C         138.1393  139.6971  165.5636 C.ar    1  UNL1       -0.0003
     37 C         138.7296  138.3384  165.7989 C.ar    1  UNL1       -0.0000
     38 C         139.2510  137.5367  164.6431 C.ar    1  UNL1       -0.0003
     39 C         139.1819  138.0939  163.2521 C.ar    1  UNL1       -0.0026
@<TRIPOS>BOND
     1    16    17    1
     2    17    15    1
     3    15    14    1
     4    14    13    1
     5    13    12    1
     6    12     4    1
     7     4     5   ar
     8     5     6   ar
     9     6     1    1
    10     1     2    2
    11     1     3   am
    12     3    21    1
    13    22    21    1
    14    22    23    1
    15    23    24    1
    16    24    25    1
    17    25    26    1
    18    26    28    1
    19    28    29    1
    20    29    30    2
    21    29    31   am
    22    31    33    1
    23    33    34    1
    24    34    35   ar
    25    35    36   ar
    26    36    37   ar
    27    37    38   ar
    28    38    39   ar
    29     3    18    1
    30    18    19    1
    31    18    20    1
    32     6     7   ar
    33     7     8   ar
    34     8     9   ar
    35     9    10    1
    36    10    11    1
    37     9     4   ar
    38    26    22    1
    39    39    34   ar
    40    24    27    1
    41    31    32    1
