@<TRIPOS>MOLECULE
*****
 41 45 0 0 0
SMALL
GASTEIGER

@<TRIPOS>ATOM
      1 C         143.0762  144.1695  162.4239 C.2     1  UNL1        0.2251
      2 O         144.4083  144.8555  162.4929 O.2     1  UNL1       -0.2749
      3 N         142.5945  143.3485  163.5832 N.am    1  UNL1       -0.2795
      4 C         141.2623  142.6624  163.5143 C.3     1  UNL1        0.0942
      5 C         140.7806  141.8415  164.6735 C.3     1  UNL1        0.0343
      6 C         141.6310  141.7065  165.9017 C.3     1  UNL1        0.0911
      7 C         142.9632  142.3926  165.9707 C.3     1  UNL1        0.0343
      8 C         143.4449  143.2135  164.8114 C.3     1  UNL1        0.0942
      9 C         140.5249  144.5743  158.7392 C.3     1  UNL1        0.0542
     10 C         140.2218  145.3980  159.9556 C.3     1  UNL1        0.0162
     11 C         141.0722  145.2631  161.1838 C.3     1  UNL1        0.0104
     12 C         142.2258  144.3044  161.1957 C.3     1  UNL1        0.0768
     13 C         142.5290  143.4807  159.9794 C.3     1  UNL1        0.0095
     14 C         143.2097  142.4907  159.0812 C.3     1  UNL1        0.0005
     15 C         143.6158  143.0019  160.8956 C.3     1  UNL1        0.0005
     16 C         141.6786  143.6156  158.7511 C.3     1  UNL1        0.0162
     17 N         139.6745  144.7093  157.5110 N.3     1  UNL1       -0.2962
     18 H         139.2896  143.7849  157.3163 H       1  UNL1        0.1235
     19 C         140.2792  145.2049  156.2308 C.3     1  UNL1        0.0769
     20 C         141.2139  144.3264  155.4534 C.3     1  UNL1        0.0220
     21 C         138.8234  148.8938  156.0813 C.ar    1  UNL1        0.1385
     22 C         139.2886  149.3273  154.7228 C.ar    1  UNL1        0.0369
     23 C         140.0840  148.3867  153.8670 C.ar    1  UNL1        0.0028
     24 C         140.4142  147.0126  154.3696 C.ar    1  UNL1       -0.0028
     25 C         139.9490  146.5791  155.7281 C.ar    1  UNL1       -0.0050
     26 C         139.1535  147.5197  156.5840 C.ar    1  UNL1        0.0339
     27 C         137.9268  149.6001  158.4153 C.3     1  UNL1        0.2525
     28 O         138.0279  149.8345  156.9372 O.3     1  UNL1       -0.4714
     29 C         140.4521  140.8731  166.3084 C.2     1  UNL1        0.2286
     30 O         139.5667  141.3239  167.4322 O.2     1  UNL1       -0.2746
     31 N         140.1585  139.5887  165.5913 N.am    1  UNL1       -0.2793
     32 C         139.0217  138.6551  165.8846 C.3     1  UNL1        0.0935
     33 C         139.1108  137.5019  164.9295 C.3     1  UNL1        0.0233
     34 C         140.3026  137.7228  164.0459 C.3     1  UNL1        0.0233
     35 C         140.9501  139.0125  164.4549 C.3     1  UNL1        0.0935
     36 C         142.0720  141.2821  167.2713 C.ar    1  UNL1       -0.0145
     37 C         142.2053  139.8242  167.5979 C.ar    1  UNL1       -0.0038
     38 C         142.6462  139.3998  168.9674 C.ar    1  UNL1       -0.0003
     39 C         142.9539  140.4332  170.0101 C.ar    1  UNL1       -0.0000
     40 C         142.8207  141.8912  169.6834 C.ar    1  UNL1       -0.0003
     41 C         142.3797  142.3156  168.3139 C.ar    1  UNL1       -0.0038
@<TRIPOS>BOND
     1    27    28    1
     2    28    21    1
     3    21    22   ar
     4    22    23   ar
     5    23    24   ar
     6    24    25   ar
     7    25    19    1
     8    19    20    1
     9    19    17    1
    10     9    17    1
    11     9    10    1
    12    10    11    1
    13    11    12    1
    14    12     1    1
    15     1     2    2
    16     1     3   am
    17     3     4    1
    18     4     5    1
    19     5     6    1
    20     6    29    1
    21    29    30    2
    22    29    31   am
    23    31    32    1
    24    32    33    1
    25    33    34    1
    26    34    35    1
    27     6    36    1
    28    36    37   ar
    29    37    38   ar
    30    38    39   ar
    31    39    40   ar
    32    40    41   ar
    33     6     7    1
    34     7     8    1
    35    12    13    1
    36    13    14    1
    37    13    15    1
    38    13    16    1
    39    25    26   ar
    40    26    21   ar
    41    16     9    1
    42     8     3    1
    43    35    31    1
    44    41    36   ar
    45    17    18    1
@<TRIPOS>MOLECULE
*****
 41 45 0 0 0
SMALL
GASTEIGER

@<TRIPOS>ATOM
      1 C         138.9407  144.2343  162.3556 C.2     1  UNL1        0.2251
      2 O         137.5842  144.8703  162.4289 O.2     1  UNL1       -0.2749
      3 N         139.5423  143.6077  163.5785 N.am    1  UNL1       -0.2795
      4 C         140.8989  142.9717  163.5052 C.3     1  UNL1        0.0942
      5 C         141.5005  142.3451  164.7280 C.3     1  UNL1        0.0343
      6 C         140.7456  142.3545  166.0242 C.3     1  UNL1        0.0911
      7 C         139.3891  142.9905  166.0975 C.3     1  UNL1        0.0343
      8 C         138.7875  143.6171  164.8746 C.3     1  UNL1        0.0942
      9 C         141.2053  144.2059  158.4670 C.3     1  UNL1        0.0542
     10 C         141.4765  145.2736  159.4852 C.3     1  UNL1        0.0162
     11 C         140.7217  145.2830  160.7813 C.3     1  UNL1        0.0104
     12 C         139.6956  144.2248  161.0594 C.3     1  UNL1        0.0768
     13 C         139.4244  143.1572  160.0413 C.3     1  UNL1        0.0095
     14 C         138.8178  141.9468  159.3955 C.3     1  UNL1        0.0005
     15 C         138.4588  142.7462  161.1132 C.3     1  UNL1        0.0005
     16 C         140.1793  143.1477  158.7451 C.3     1  UNL1        0.0162
     17 N         141.9602  144.1965  157.1709 N.3     1  UNL1       -0.2962
     18 H         142.5793  145.0070  157.1848 H       1  UNL1        0.1235
     19 C         141.2162  144.2422  155.8693 C.3     1  UNL1        0.0769
     20 C         140.9177  142.9711  155.1309 C.3     1  UNL1        0.0220
     21 C         139.4276  147.7702  155.5460 C.ar    1  UNL1        0.1385
     22 C         139.8792  148.1928  154.1795 C.ar    1  UNL1        0.0369
     23 C         140.7764  147.2985  153.3762 C.ar    1  UNL1        0.0028
     24 C         141.2221  145.9817  153.9394 C.ar    1  UNL1       -0.0028
     25 C         140.7705  145.5591  155.3060 C.ar    1  UNL1       -0.0050
     26 C         139.8733  146.4533  156.1093 C.ar    1  UNL1        0.0339
     27 C         138.4640  150.1312  156.0428 C.3     1  UNL1        0.2525
     28 O         138.5304  148.6644  156.3493 O.3     1  UNL1       -0.4714
     29 C         141.9900  141.6350  166.4528 C.2     1  UNL1        0.2286
     30 O         143.0114  142.3398  167.2954 O.2     1  UNL1       -0.2746
     31 N         142.2130  140.2106  166.0388 N.am    1  UNL1       -0.2793
     32 C         143.4024  139.3665  166.3892 C.3     1  UNL1        0.0935
     33 C         143.2102  138.0144  165.7686 C.3     1  UNL1        0.0233
     34 C         141.9020  138.0230  165.0347 C.3     1  UNL1        0.0233
     35 C         141.2857  139.3802  165.2016 C.3     1  UNL1        0.0935
     36 C         140.4229  142.1141  167.4693 C.ar    1  UNL1       -0.0145
     37 C         139.9511  140.7626  167.9175 C.ar    1  UNL1       -0.0038
     38 C         139.6284  140.5222  169.3625 C.ar    1  UNL1       -0.0003
     39 C         139.7775  141.6331  170.3592 C.ar    1  UNL1       -0.0000
     40 C         140.2493  142.9846  169.9110 C.ar    1  UNL1       -0.0003
     41 C         140.5720  143.2250  168.4660 C.ar    1  UNL1       -0.0038
@<TRIPOS>BOND
     1    27    28    1
     2    28    21    1
     3    21    22   ar
     4    22    23   ar
     5    23    24   ar
     6    24    25   ar
     7    25    19    1
     8    19    20    1
     9    19    17    1
    10     9    17    1
    11     9    10    1
    12    10    11    1
    13    11    12    1
    14    12     1    1
    15     1     2    2
    16     1     3   am
    17     3     4    1
    18     4     5    1
    19     5     6    1
    20     6    29    1
    21    29    30    2
    22    29    31   am
    23    31    32    1
    24    32    33    1
    25    33    34    1
    26    34    35    1
    27     6    36    1
    28    36    37   ar
    29    37    38   ar
    30    38    39   ar
    31    39    40   ar
    32    40    41   ar
    33     6     7    1
    34     7     8    1
    35    12    13    1
    36    13    14    1
    37    13    15    1
    38    13    16    1
    39    25    26   ar
    40    26    21   ar
    41    16     9    1
    42     8     3    1
    43    35    31    1
    44    41    36   ar
    45    17    18    1
@<TRIPOS>MOLECULE
*****
 41 45 0 0 0
SMALL
GASTEIGER

@<TRIPOS>ATOM
      1 C         140.5849  144.5724  162.3755 C.2     1  UNL1        0.2251
      2 O         140.7133  146.0611  162.2438 O.2     1  UNL1       -0.2749
      3 N         140.1779  143.7470  161.1909 N.am    1  UNL1       -0.2795
      4 C         140.0495  142.2583  161.3225 C.3     1  UNL1        0.0942
      5 C         139.6425  141.4330  160.1380 C.3     1  UNL1        0.0343
      6 C         139.3639  142.0963  158.8219 C.3     1  UNL1        0.0911
      7 C         139.4923  143.5850  158.6902 C.3     1  UNL1        0.0343
      8 C         139.8993  144.4104  159.8747 C.3     1  UNL1        0.0942
      9 C         141.4207  142.5824  166.3240 C.3     1  UNL1        0.0542
     10 C         142.4314  142.5086  165.2181 C.3     1  UNL1        0.0162
     11 C         142.1528  143.1719  163.9020 C.3     1  UNL1        0.0104
     12 C         140.8635  143.9091  163.6916 C.3     1  UNL1        0.0768
     13 C         139.8527  143.9828  164.7975 C.3     1  UNL1        0.0095
     14 C         138.5933  144.3287  165.5352 C.3     1  UNL1        0.0005
     15 C         139.1367  144.7663  163.7375 C.3     1  UNL1        0.0005
     16 C         140.1313  143.3195  166.1137 C.3     1  UNL1        0.0162
     17 N         141.6993  141.9190  167.6402 N.3     1  UNL1       -0.2962
     18 H         142.6524  142.1715  167.9012 H       1  UNL1        0.1235
     19 C         141.5966  140.4278  167.7651 C.3     1  UNL1        0.0769
     20 C         142.4843  139.6927  168.7251 C.3     1  UNL1        0.0220
     21 C         140.0743  138.1795  164.8706 C.ar    1  UNL1        0.1385
     22 C         138.6258  138.1593  165.2596 C.ar    1  UNL1        0.0369
     23 C         138.1675  138.8951  166.4837 C.ar    1  UNL1        0.0028
     24 C         139.1578  139.6513  167.3189 C.ar    1  UNL1       -0.0028
     25 C         140.6063  139.6716  166.9299 C.ar    1  UNL1       -0.0050
     26 C         141.0646  138.9357  165.7058 C.ar    1  UNL1        0.0339
     27 C         140.0912  137.9005  162.2877 C.3     1  UNL1        0.2525
     28 O         140.5326  137.4437  163.6465 O.3     1  UNL1       -0.4714
     29 C         139.1079  140.6655  158.4517 C.2     1  UNL1        0.2286
     30 O         137.6999  140.1627  158.3295 O.2     1  UNL1       -0.2746
     31 N         140.2599  139.7373  158.2037 N.am    1  UNL1       -0.2793
     32 C         140.1598  138.2886  157.8280 C.3     1  UNL1        0.0935
     33 C         141.5523  137.7509  157.6800 C.3     1  UNL1        0.0233
     34 C         142.5130  138.8673  157.9642 C.3     1  UNL1        0.0233
     35 C         141.7142  140.0949  158.2879 C.3     1  UNL1        0.0935
     36 C         138.9964  142.2627  157.3770 C.ar    1  UNL1       -0.0145
     37 C         137.5849  142.5983  156.9962 C.ar    1  UNL1       -0.0038
     38 C         137.2174  142.7647  155.5514 C.ar    1  UNL1       -0.0003
     39 C         138.2613  142.5955  154.4876 C.ar    1  UNL1       -0.0000
     40 C         139.6728  142.2599  154.8686 C.ar    1  UNL1       -0.0003
     41 C         140.0403  142.0935  156.3133 C.ar    1  UNL1       -0.0038
@<TRIPOS>BOND
     1    27    28    1
     2    28    21    1
     3    21    22   ar
     4    22    23   ar
     5    23    24   ar
     6    24    25   ar
     7    25    19    1
     8    19    20    1
     9    19    17    1
    10     9    17    1
    11     9    10    1
    12    10    11    1
    13    11    12    1
    14    12     1    1
    15     1     2    2
    16     1     3   am
    17     3     4    1
    18     4     5    1
    19     5     6    1
    20     6    29    1
    21    29    30    2
    22    29    31   am
    23    31    32    1
    24    32    33    1
    25    33    34    1
    26    34    35    1
    27     6    36    1
    28    36    37   ar
    29    37    38   ar
    30    38    39   ar
    31    39    40   ar
    32    40    41   ar
    33     6     7    1
    34     7     8    1
    35    12    13    1
    36    13    14    1
    37    13    15    1
    38    13    16    1
    39    25    26   ar
    40    26    21   ar
    41    16     9    1
    42     8     3    1
    43    35    31    1
    44    41    36   ar
    45    17    18    1
@<TRIPOS>MOLECULE
*****
 41 45 0 0 0
SMALL
GASTEIGER

@<TRIPOS>ATOM
      1 C         139.3149  144.1911  162.1023 C.2     1  UNL1        0.2251
      2 O         138.7483  145.5590  162.3430 O.2     1  UNL1       -0.2749
      3 N         139.9405  143.4289  163.2327 N.am    1  UNL1       -0.2795
      4 C         140.5071  142.0611  162.9920 C.3     1  UNL1        0.0942
      5 C         141.1326  141.2989  164.1224 C.3     1  UNL1        0.0343
      6 C         141.1916  141.9045  165.4934 C.3     1  UNL1        0.0911
      7 C         140.6249  143.2724  165.7340 C.3     1  UNL1        0.0343
      8 C         139.9994  144.0346  164.6037 C.3     1  UNL1        0.0942
      9 C         139.1382  142.3742  157.9892 C.3     1  UNL1        0.0542
     10 C         138.2751  141.8284  159.0880 C.3     1  UNL1        0.0162
     11 C         138.3340  142.4341  160.4590 C.3     1  UNL1        0.0104
     12 C         139.2560  143.5855  160.7313 C.3     1  UNL1        0.0768
     13 C         140.1191  144.1313  159.6326 C.3     1  UNL1        0.0095
     14 C         141.1238  144.9912  158.9246 C.3     1  UNL1        0.0005
     15 C         140.5269  145.0356  160.7577 C.3     1  UNL1        0.0005
     16 C         140.0602  143.5257  158.2615 C.3     1  UNL1        0.0162
     17 N         139.0793  141.7686  156.6182 N.3     1  UNL1       -0.2962
     18 H         140.0296  141.7848  156.2480 H       1  UNL1        0.1235
     19 C         138.1952  142.3737  155.5683 C.3     1  UNL1        0.0769
     20 C         138.6777  143.5455  154.7659 C.3     1  UNL1        0.0220
     21 C         134.7834  140.4276  156.1362 C.ar    1  UNL1        0.1385
     22 C         134.0955  140.6733  154.8261 C.ar    1  UNL1        0.0369
     23 C         134.7741  141.4858  153.7634 C.ar    1  UNL1        0.0028
     24 C         136.1407  142.0526  154.0108 C.ar    1  UNL1       -0.0028
     25 C         136.8286  141.8069  155.3209 C.ar    1  UNL1       -0.0050
     26 C         136.1499  140.9944  156.3836 C.ar    1  UNL1        0.0339
     27 C         132.9139  138.7717  156.8521 C.3     1  UNL1        0.2525
     28 O         134.1048  139.6152  157.1989 O.3     1  UNL1       -0.4714
     29 C         141.8592  140.5883  165.7612 C.2     1  UNL1        0.2286
     30 O         141.1901  139.5728  166.6393 O.2     1  UNL1       -0.2746
     31 N         143.1960  140.2875  165.1509 N.am    1  UNL1       -0.2793
     32 C         143.9811  139.0216  165.3274 C.3     1  UNL1        0.0935
     33 C         145.2527  139.1516  164.5425 C.3     1  UNL1        0.0233
     34 C         145.2536  140.4978  163.8809 C.3     1  UNL1        0.0233
     35 C         143.9825  141.1998  164.2569 C.3     1  UNL1        0.0935
     36 C         141.4824  142.0530  166.9575 C.ar    1  UNL1       -0.0145
     37 C         140.3595  142.0257  167.9516 C.ar    1  UNL1       -0.0038
     38 C         140.6503  142.1742  169.4156 C.ar    1  UNL1       -0.0003
     39 C         142.0639  142.3501  169.8855 C.ar    1  UNL1       -0.0000
     40 C         143.1867  142.3774  168.8913 C.ar    1  UNL1       -0.0003
     41 C         142.8959  142.2289  167.4273 C.ar    1  UNL1       -0.0038
@<TRIPOS>BOND
     1    27    28    1
     2    28    21    1
     3    21    22   ar
     4    22    23   ar
     5    23    24   ar
     6    24    25   ar
     7    25    19    1
     8    19    20    1
     9    19    17    1
    10     9    17    1
    11     9    10    1
    12    10    11    1
    13    11    12    1
    14    12     1    1
    15     1     2    2
    16     1     3   am
    17     3     4    1
    18     4     5    1
    19     5     6    1
    20     6    29    1
    21    29    30    2
    22    29    31   am
    23    31    32    1
    24    32    33    1
    25    33    34    1
    26    34    35    1
    27     6    36    1
    28    36    37   ar
    29    37    38   ar
    30    38    39   ar
    31    39    40   ar
    32    40    41   ar
    33     6     7    1
    34     7     8    1
    35    12    13    1
    36    13    14    1
    37    13    15    1
    38    13    16    1
    39    25    26   ar
    40    26    21   ar
    41    16     9    1
    42     8     3    1
    43    35    31    1
    44    41    36   ar
    45    17    18    1
@<TRIPOS>MOLECULE
*****
 41 45 0 0 0
SMALL
GASTEIGER

@<TRIPOS>ATOM
      1 C         144.6875  141.8382  163.2628 C.2     1  UNL1        0.2251
      2 O         146.1707  141.6729  163.1121 O.2     1  UNL1       -0.2749
      3 N         143.8586  142.2747  162.0912 N.am    1  UNL1       -0.2795
      4 C         142.3754  142.4401  162.2419 C.3     1  UNL1        0.0942
      5 C         141.5465  142.8765  161.0704 C.3     1  UNL1        0.0343
      6 C         142.2009  143.1476  159.7482 C.3     1  UNL1        0.0911
      7 C         143.6841  142.9823  159.5975 C.3     1  UNL1        0.0343
      8 C         144.5130  142.5458  160.7690 C.3     1  UNL1        0.0942
      9 C         142.7244  141.0249  167.2295 C.3     1  UNL1        0.0542
     10 C         143.1341  142.4218  166.8678 C.3     1  UNL1        0.0162
     11 C         143.7885  142.6929  165.5456 C.3     1  UNL1        0.0104
     12 C         144.0331  141.5671  164.5850 C.3     1  UNL1        0.0768
     13 C         143.6234  140.1703  164.9466 C.3     1  UNL1        0.0095
     14 C         143.4159  138.6888  164.8356 C.3     1  UNL1        0.0005
     15 C         144.2057  139.9268  163.5859 C.3     1  UNL1        0.0005
     16 C         142.9690  139.8991  166.2689 C.3     1  UNL1        0.0162
     17 N         142.0700  140.7538  168.5517 N.3     1  UNL1       -0.2962
     18 H         142.4072  139.8439  168.8660 H       1  UNL1        0.1235
     19 C         140.5740  140.7206  168.6553 C.3     1  UNL1        0.0769
     20 C         139.9125  140.8296  169.9972 C.3     1  UNL1        0.0220
     21 C         138.8619  141.5472  165.1717 C.ar    1  UNL1        0.1385
     22 C         138.0702  140.2943  164.9406 C.ar    1  UNL1        0.0369
     23 C         138.1130  139.1836  165.9477 C.ar    1  UNL1        0.0028
     24 C         138.9476  139.3256  167.1860 C.ar    1  UNL1       -0.0028
     25 C         139.7393  140.5785  167.4171 C.ar    1  UNL1       -0.0050
     26 C         139.6965  141.6893  166.4099 C.ar    1  UNL1        0.0339
     27 C         137.7775  142.6519  163.0852 C.3     1  UNL1        0.2525
     28 O         138.8191  142.6580  164.1646 O.3     1  UNL1       -0.4714
     29 C         140.7727  143.4427  159.3973 C.2     1  UNL1        0.2286
     30 O         140.2382  144.8371  159.5391 O.2     1  UNL1       -0.2746
     31 N         139.8789  142.3434  158.9047 N.am    1  UNL1       -0.2793
     32 C         138.4369  142.4863  158.5174 C.3     1  UNL1        0.0935
     33 C         137.9370  141.1394  158.0862 C.3     1  UNL1        0.0233
     34 C         139.0702  140.1639  158.2070 C.3     1  UNL1        0.0233
     35 C         140.2703  140.9080  158.7128 C.3     1  UNL1        0.0935
     36 C         142.3593  143.5212  158.3041 C.ar    1  UNL1       -0.0145
     37 C         142.0755  144.9246  157.8571 C.ar    1  UNL1       -0.0038
     38 C         142.2338  145.2982  156.4130 C.ar    1  UNL1       -0.0003
     39 C         142.6759  144.2685  155.4160 C.ar    1  UNL1       -0.0000
     40 C         142.9597  142.8650  155.8630 C.ar    1  UNL1       -0.0003
     41 C         142.8014  142.4914  157.3071 C.ar    1  UNL1       -0.0038
@<TRIPOS>BOND
     1    27    28    1
     2    28    21    1
     3    21    22   ar
     4    22    23   ar
     5    23    24   ar
     6    24    25   ar
     7    25    19    1
     8    19    20    1
     9    19    17    1
    10     9    17    1
    11     9    10    1
    12    10    11    1
    13    11    12    1
    14    12     1    1
    15     1     2    2
    16     1     3   am
    17     3     4    1
    18     4     5    1
    19     5     6    1
    20     6    29    1
    21    29    30    2
    22    29    31   am
    23    31    32    1
    24    32    33    1
    25    33    34    1
    26    34    35    1
    27     6    36    1
    28    36    37   ar
    29    37    38   ar
    30    38    39   ar
    31    39    40   ar
    32    40    41   ar
    33     6     7    1
    34     7     8    1
    35    12    13    1
    36    13    14    1
    37    13    15    1
    38    13    16    1
    39    25    26   ar
    40    26    21   ar
    41    16     9    1
    42     8     3    1
    43    35    31    1
    44    41    36   ar
    45    17    18    1
@<TRIPOS>MOLECULE
*****
 41 45 0 0 0
SMALL
GASTEIGER

@<TRIPOS>ATOM
      1 C         139.0182  144.1823  162.3690 C.2     1  UNL1        0.2251
      2 O         137.7038  144.9025  162.4294 O.2     1  UNL1       -0.2749
      3 N         139.5966  143.5716  163.6111 N.am    1  UNL1       -0.2795
      4 C         140.9110  142.8514  163.5507 C.3     1  UNL1        0.0942
      5 C         141.4893  142.2408  164.7927 C.3     1  UNL1        0.0343
      6 C         140.7533  142.3503  166.0950 C.3     1  UNL1        0.0911
      7 C         139.4389  143.0705  166.1554 C.3     1  UNL1        0.0343
      8 C         138.8605  143.6811  164.9134 C.3     1  UNL1        0.0942
      9 C         141.2264  143.8537  158.4619 C.3     1  UNL1        0.0542
     10 C         141.6099  144.9119  159.4535 C.3     1  UNL1        0.0162
     11 C         140.8738  145.0214  160.7558 C.3     1  UNL1        0.0104
     12 C         139.7543  144.0728  161.0667 C.3     1  UNL1        0.0768
     13 C         139.3707  143.0146  160.0751 C.3     1  UNL1        0.0095
     14 C         138.6439  141.8545  159.4619 C.3     1  UNL1        0.0005
     15 C         138.3823  142.7212  161.1645 C.3     1  UNL1        0.0005
     16 C         140.1068  142.9050  158.7727 C.3     1  UNL1        0.0162
     17 N         141.9624  143.7442  157.1595 N.3     1  UNL1       -0.2962
     18 H         141.2623  143.5648  156.4398 H       1  UNL1        0.1235
     19 C         143.0342  142.7088  156.9885 C.3     1  UNL1        0.0769
     20 C         143.9837  142.7963  155.8306 C.3     1  UNL1        0.0220
     21 C         143.9333  140.7002  160.2912 C.ar    1  UNL1        0.1385
     22 C         143.4012  139.3401  159.9495 C.ar    1  UNL1        0.0369
     23 C         142.7467  139.1028  158.6208 C.ar    1  UNL1        0.0028
     24 C         142.6244  140.2257  157.6338 C.ar    1  UNL1       -0.0028
     25 C         143.1565  141.5858  157.9755 C.ar    1  UNL1       -0.0050
     26 C         143.8110  141.8231  159.3042 C.ar    1  UNL1        0.0339
     27 C         144.1988  140.1066  162.8065 C.3     1  UNL1        0.2525
     28 O         144.5878  140.9375  161.6198 O.3     1  UNL1       -0.4714
     29 C         141.9572  141.5746  166.5408 C.2     1  UNL1        0.2286
     30 O         142.9756  142.2182  167.4345 O.2     1  UNL1       -0.2746
     31 N         142.1429  140.1551  166.0928 N.am    1  UNL1       -0.2793
     32 C         143.2900  139.2591  166.4551 C.3     1  UNL1        0.0935
     33 C         143.0701  137.9327  165.7900 C.3     1  UNL1        0.0233
     34 C         141.7870  138.0090  165.0167 C.3     1  UNL1        0.0233
     35 C         141.2140  139.3824  165.2038 C.3     1  UNL1        0.0935
     36 C         140.4353  142.1904  167.5523 C.ar    1  UNL1       -0.0145
     37 C         139.9647  140.8660  168.0762 C.ar    1  UNL1       -0.0038
     38 C         139.6468  140.7062  169.5334 C.ar    1  UNL1       -0.0003
     39 C         139.7995  141.8706  170.4666 C.ar    1  UNL1       -0.0000
     40 C         140.2701  143.1950  169.9425 C.ar    1  UNL1       -0.0003
     41 C         140.5880  143.3548  168.4854 C.ar    1  UNL1       -0.0038
@<TRIPOS>BOND
     1    27    28    1
     2    28    21    1
     3    21    22   ar
     4    22    23   ar
     5    23    24   ar
     6    24    25   ar
     7    25    19    1
     8    19    20    1
     9    19    17    1
    10     9    17    1
    11     9    10    1
    12    10    11    1
    13    11    12    1
    14    12     1    1
    15     1     2    2
    16     1     3   am
    17     3     4    1
    18     4     5    1
    19     5     6    1
    20     6    29    1
    21    29    30    2
    22    29    31   am
    23    31    32    1
    24    32    33    1
    25    33    34    1
    26    34    35    1
    27     6    36    1
    28    36    37   ar
    29    37    38   ar
    30    38    39   ar
    31    39    40   ar
    32    40    41   ar
    33     6     7    1
    34     7     8    1
    35    12    13    1
    36    13    14    1
    37    13    15    1
    38    13    16    1
    39    25    26   ar
    40    26    21   ar
    41    16     9    1
    42     8     3    1
    43    35    31    1
    44    41    36   ar
    45    17    18    1
@<TRIPOS>MOLECULE
*****
 41 45 0 0 0
SMALL
GASTEIGER

@<TRIPOS>ATOM
      1 C         143.2573  143.9507  162.4181 C.2     1  UNL1        0.2251
      2 O         144.6109  144.5944  162.4749 O.2     1  UNL1       -0.2749
      3 N         142.7438  143.1788  163.5974 N.am    1  UNL1       -0.2795
      4 C         141.3902  142.5351  163.5406 C.3     1  UNL1        0.0942
      5 C         140.8767  141.7631  164.7197 C.3     1  UNL1        0.0343
      6 C         141.7169  141.6349  165.9557 C.3     1  UNL1        0.0911
      7 C         143.0706  142.2786  166.0124 C.3     1  UNL1        0.0343
      8 C         143.5840  143.0505  164.8333 C.3     1  UNL1        0.0942
      9 C         140.7366  144.3354  158.7103 C.3     1  UNL1        0.0542
     10 C         140.3898  145.1242  159.9382 C.3     1  UNL1        0.0162
     11 C         141.2300  144.9960  161.1741 C.3     1  UNL1        0.0104
     12 C         142.4171  144.0790  161.1822 C.3     1  UNL1        0.0768
     13 C         142.7639  143.2902  159.9544 C.3     1  UNL1        0.0095
     14 C         143.4901  142.3426  159.0463 C.3     1  UNL1        0.0005
     15 C         143.8563  142.8328  160.8749 C.3     1  UNL1        0.0005
     16 C         141.9237  143.4184  158.7184 C.3     1  UNL1        0.0162
     17 N         139.8964  144.4636  157.4744 N.3     1  UNL1       -0.2962
     18 H         139.3549  145.3222  157.5742 H       1  UNL1        0.1235
     19 C         138.9257  143.3792  157.1115 C.3     1  UNL1        0.0769
     20 C         137.9875  143.5681  155.9565 C.3     1  UNL1        0.0220
     21 C         138.1091  140.7750  159.9927 C.ar    1  UNL1        0.1385
     22 C         138.8282  139.5592  159.4881 C.ar    1  UNL1        0.0369
     23 C         139.5799  139.6167  158.1913 C.ar    1  UNL1        0.0028
     24 C         139.6124  140.8900  157.3991 C.ar    1  UNL1       -0.0028
     25 C         138.8932  142.1058  157.9037 C.ar    1  UNL1       -0.0050
     26 C         138.1416  142.0483  159.2005 C.ar    1  UNL1        0.0339
     27 C         138.0868  140.4227  162.5667 C.3     1  UNL1        0.2525
     28 O         137.3575  140.7175  161.2896 O.3     1  UNL1       -0.4714
     29 C         140.5094  140.8522  166.3793 C.2     1  UNL1        0.2286
     30 O         139.6465  141.3523  167.4996 O.2     1  UNL1       -0.2746
     31 N         140.1649  139.5694  165.6824 N.am    1  UNL1       -0.2793
     32 C         138.9953  138.6834  165.9940 C.3     1  UNL1        0.0935
     33 C         139.0370  137.5137  165.0558 C.3     1  UNL1        0.0233
     34 C         140.2323  137.6768  164.1644 C.3     1  UNL1        0.0233
     35 C         140.9294  138.9473  164.5516 C.3     1  UNL1        0.0935
     36 C         142.1378  141.2348  167.3388 C.ar    1  UNL1       -0.0145
     37 C         142.4239  142.2866  168.3693 C.ar    1  UNL1       -0.0038
     38 C         142.8447  141.8865  169.7523 C.ar    1  UNL1       -0.0003
     39 C         142.9795  140.4348  170.1049 C.ar    1  UNL1       -0.0000
     40 C         142.6934  139.3830  169.0743 C.ar    1  UNL1       -0.0003
     41 C         142.2726  139.7831  167.6913 C.ar    1  UNL1       -0.0038
@<TRIPOS>BOND
     1    27    28    1
     2    28    21    1
     3    21    22   ar
     4    22    23   ar
     5    23    24   ar
     6    24    25   ar
     7    25    19    1
     8    19    20    1
     9    19    17    1
    10     9    17    1
    11     9    10    1
    12    10    11    1
    13    11    12    1
    14    12     1    1
    15     1     2    2
    16     1     3   am
    17     3     4    1
    18     4     5    1
    19     5     6    1
    20     6    29    1
    21    29    30    2
    22    29    31   am
    23    31    32    1
    24    32    33    1
    25    33    34    1
    26    34    35    1
    27     6    36    1
    28    36    37   ar
    29    37    38   ar
    30    38    39   ar
    31    39    40   ar
    32    40    41   ar
    33     6     7    1
    34     7     8    1
    35    12    13    1
    36    13    14    1
    37    13    15    1
    38    13    16    1
    39    25    26   ar
    40    26    21   ar
    41    16     9    1
    42     8     3    1
    43    35    31    1
    44    41    36   ar
    45    17    18    1
@<TRIPOS>MOLECULE
*****
 41 45 0 0 0
SMALL
GASTEIGER

@<TRIPOS>ATOM
      1 C         140.2935  145.3089  161.9492 C.2     1  UNL1        0.2251
      2 O         139.8515  146.7345  162.0985 O.2     1  UNL1       -0.2749
      3 N         140.5406  144.7394  160.5836 N.am    1  UNL1       -0.2795
      4 C         140.9826  143.3138  160.4344 C.3     1  UNL1        0.0942
      5 C         141.2296  142.7442  159.0689 C.3     1  UNL1        0.0343
      6 C         141.0346  143.6002  157.8527 C.3     1  UNL1        0.0911
      7 C         140.5925  145.0258  158.0020 C.3     1  UNL1        0.0343
      8 C         140.3455  145.5954  159.3675 C.3     1  UNL1        0.0942
      9 C         140.8786  142.7408  165.5978 C.3     1  UNL1        0.0542
     10 C         142.0689  143.2866  164.8661 C.3     1  UNL1        0.0162
     11 C         141.8738  144.1427  163.6499 C.3     1  UNL1        0.0104
     12 C         140.4886  144.4529  163.1654 C.3     1  UNL1        0.0768
     13 C         139.2983  143.9072  163.8971 C.3     1  UNL1        0.0095
     14 C         137.8677  143.6246  164.2488 C.3     1  UNL1        0.0005
     15 C         138.6064  144.6650  162.8031 C.3     1  UNL1        0.0005
     16 C         139.4933  143.0511  165.1133 C.3     1  UNL1        0.0162
     17 N         141.0736  141.8848  166.8140 N.3     1  UNL1       -0.2962
     18 H         142.0784  141.7407  166.9146 H       1  UNL1        0.1235
     19 C         140.4324  140.5308  166.8888 C.3     1  UNL1        0.0769
     20 C         139.5424  140.1854  168.0457 C.3     1  UNL1        0.0220
     21 C         139.7822  137.9744  163.9237 C.ar    1  UNL1        0.1385
     22 C         141.1789  137.5053  163.6425 C.ar    1  UNL1        0.0369
     23 C         142.3268  138.0447  164.4433 C.ar    1  UNL1        0.0028
     24 C         142.0780  139.0532  165.5254 C.ar    1  UNL1       -0.0028
     25 C         140.6813  139.5223  165.8067 C.ar    1  UNL1       -0.0050
     26 C         139.5334  138.9829  165.0058 C.ar    1  UNL1        0.0339
     27 C         138.1031  138.2129  161.9556 C.3     1  UNL1        0.2525
     28 O         138.6343  137.4350  163.1228 O.3     1  UNL1       -0.4714
     29 C         141.4602  142.3172  157.2026 C.2     1  UNL1        0.2286
     30 O         140.4353  141.4146  156.5823 O.2     1  UNL1       -0.2746
     31 N         142.9109  141.9368  157.1728 N.am    1  UNL1       -0.2793
     32 C         143.4836  140.6924  156.5619 C.3     1  UNL1        0.0935
     33 C         144.9702  140.7205  156.7602 C.3     1  UNL1        0.0233
     34 C         145.3162  141.9824  157.4937 C.3     1  UNL1        0.0233
     35 C         144.0435  142.7341  157.7487 C.3     1  UNL1        0.0935
     36 C         140.9874  144.0107  156.4107 C.ar    1  UNL1       -0.0145
     37 C         142.2288  144.5081  155.7315 C.ar    1  UNL1       -0.0038
     38 C         142.1816  144.9185  154.2895 C.ar    1  UNL1       -0.0003
     39 C         140.8930  144.8316  153.5267 C.ar    1  UNL1       -0.0000
     40 C         139.6515  144.3342  154.2060 C.ar    1  UNL1       -0.0003
     41 C         139.6987  143.9237  155.6479 C.ar    1  UNL1       -0.0038
@<TRIPOS>BOND
     1    27    28    1
     2    28    21    1
     3    21    22   ar
     4    22    23   ar
     5    23    24   ar
     6    24    25   ar
     7    25    19    1
     8    19    20    1
     9    19    17    1
    10     9    17    1
    11     9    10    1
    12    10    11    1
    13    11    12    1
    14    12     1    1
    15     1     2    2
    16     1     3   am
    17     3     4    1
    18     4     5    1
    19     5     6    1
    20     6    29    1
    21    29    30    2
    22    29    31   am
    23    31    32    1
    24    32    33    1
    25    33    34    1
    26    34    35    1
    27     6    36    1
    28    36    37   ar
    29    37    38   ar
    30    38    39   ar
    31    39    40   ar
    32    40    41   ar
    33     6     7    1
    34     7     8    1
    35    12    13    1
    36    13    14    1
    37    13    15    1
    38    13    16    1
    39    25    26   ar
    40    26    21   ar
    41    16     9    1
    42     8     3    1
    43    35    31    1
    44    41    36   ar
    45    17    18    1
@<TRIPOS>MOLECULE
*****
 41 45 0 0 0
SMALL
GASTEIGER

@<TRIPOS>ATOM
      1 C         138.7286  143.2543  162.3971 C.2     1  UNL1        0.2251
      2 O         138.0709  144.5995  162.4862 O.2     1  UNL1       -0.2749
      3 N         139.5204  142.7283  163.5575 N.am    1  UNL1       -0.2795
      4 C         140.1780  141.3831  163.4685 C.3     1  UNL1        0.0942
      5 C         140.9698  140.8570  164.6288 C.3     1  UNL1        0.0343
      6 C         141.1038  141.6762  165.8782 C.3     1  UNL1        0.0911
      7 C         140.4462  143.0214  165.9672 C.3     1  UNL1        0.0343
      8 C         139.6544  143.5474  164.8069 C.3     1  UNL1        0.0942
      9 C         138.3264  140.7969  158.6489 C.3     1  UNL1        0.0542
     10 C         137.6618  140.3465  159.9160 C.3     1  UNL1        0.0162
     11 C         137.7959  141.1656  161.1654 C.3     1  UNL1        0.0104
     12 C         138.5945  142.4352  161.1478 C.3     1  UNL1        0.0768
     13 C         139.2591  142.8856  159.8808 C.3     1  UNL1        0.0095
     14 C         140.0679  143.7213  158.9333 C.3     1  UNL1        0.0005
     15 C         139.6741  143.9950  160.8011 C.3     1  UNL1        0.0005
     16 C         139.1251  142.0664  158.6313 C.3     1  UNL1        0.0162
     17 N         138.1924  139.9777  157.3996 N.3     1  UNL1       -0.2962
     18 H         137.4315  139.3177  157.5605 H       1  UNL1        0.1235
     19 C         139.3589  139.1798  156.8971 C.3     1  UNL1        0.0769
     20 C         139.2117  138.3256  155.6729 C.3     1  UNL1        0.0220
     21 C         142.2008  138.4651  159.5734 C.ar    1  UNL1        0.1385
     22 C         143.3001  139.3486  159.0624 C.ar    1  UNL1        0.0369
     23 C         143.0856  140.1758  157.8296 C.ar    1  UNL1        0.0028
     24 C         141.7719  140.1195  157.1079 C.ar    1  UNL1       -0.0028
     25 C         140.6727  139.2361  157.6189 C.ar    1  UNL1       -0.0050
     26 C         140.8872  138.4089  158.8516 C.ar    1  UNL1        0.0339
     27 C         142.0000  138.1678  162.1466 C.3     1  UNL1        0.2525
     28 O         142.4153  137.6379  160.8062 O.3     1  UNL1       -0.4714
     29 C         141.9047  140.4700  166.2704 C.2     1  UNL1        0.2286
     30 O         141.4514  139.6069  167.4104 O.2     1  UNL1       -0.2746
     31 N         143.1589  140.1270  165.5226 N.am    1  UNL1       -0.2793
     32 C         144.0585  138.9589  165.7987 C.3     1  UNL1        0.0935
     33 C         145.1893  139.0018  164.8141 C.3     1  UNL1        0.0233
     34 C         144.9886  140.1965  163.9294 C.3     1  UNL1        0.0233
     35 C         143.7339  140.8918  164.3673 C.3     1  UNL1        0.0935
     36 C         141.5161  142.0765  167.2639 C.ar    1  UNL1       -0.0145
     37 C         140.4741  142.4264  168.2845 C.ar    1  UNL1       -0.0038
     38 C         140.8863  142.8267  169.6701 C.ar    1  UNL1       -0.0003
     39 C         142.3404  142.8770  170.0350 C.ar    1  UNL1       -0.0000
     40 C         143.3823  142.5270  169.0143 C.ar    1  UNL1       -0.0003
     41 C         142.9701  142.1267  167.6287 C.ar    1  UNL1       -0.0038
@<TRIPOS>BOND
     1    27    28    1
     2    28    21    1
     3    21    22   ar
     4    22    23   ar
     5    23    24   ar
     6    24    25   ar
     7    25    19    1
     8    19    20    1
     9    19    17    1
    10     9    17    1
    11     9    10    1
    12    10    11    1
    13    11    12    1
    14    12     1    1
    15     1     2    2
    16     1     3   am
    17     3     4    1
    18     4     5    1
    19     5     6    1
    20     6    29    1
    21    29    30    2
    22    29    31   am
    23    31    32    1
    24    32    33    1
    25    33    34    1
    26    34    35    1
    27     6    36    1
    28    36    37   ar
    29    37    38   ar
    30    38    39   ar
    31    39    40   ar
    32    40    41   ar
    33     6     7    1
    34     7     8    1
    35    12    13    1
    36    13    14    1
    37    13    15    1
    38    13    16    1
    39    25    26   ar
    40    26    21   ar
    41    16     9    1
    42     8     3    1
    43    35    31    1
    44    41    36   ar
    45    17    18    1
