@<TRIPOS>MOLECULE
*****
 30 32 0 0 0
SMALL
GASTEIGER

@<TRIPOS>ATOM
      1 C         140.6137  143.6954  164.6129 C.ar    1  UNL1        0.1297
      2 C         140.2178  143.2427  165.9870 C.ar    1  UNL1        0.0486
      3 C         141.2016  142.5049  166.8461 C.ar    1  UNL1        0.0519
      4 C         142.5812  142.2199  166.3310 C.ar    1  UNL1        0.0294
      5 C         142.9770  142.6726  164.9568 C.ar    1  UNL1        0.0621
      6 N         141.9933  143.4103  164.0978 N.ar    1  UNL1       -0.2351
      7 N         140.8056  142.0522  168.2203 N.pl3   1  UNL1       -0.3027
      8 C         140.8202  140.5917  168.5620 C.3     1  UNL1        0.1231
      9 C         140.4243  140.1390  169.9361 C.3     1  UNL1        0.1636
     10 O         140.0138  141.1468  170.9686 O.3     1  UNL1       -0.3501
     11 C         139.9993  142.6073  170.6269 C.3     1  UNL1        0.1636
     12 C         140.3952  143.0600  169.2527 C.3     1  UNL1        0.1231
     13 N         139.6299  144.4331  163.7538 N.pl3   1  UNL1       -0.3090
     14 H         139.9255  145.2043  163.2181 H       1  UNL1        0.1487
     15 C         138.1957  143.9958  163.7111 C.3     1  UNL1        0.1996
     16 C         137.7319  143.0486  162.6444 C.2     1  UNL1        0.3373
     17 O         138.0080  143.3507  161.2014 O.2     1  UNL1       -0.2482
     18 O         136.9919  141.7993  163.0210 O.3     1  UNL1       -0.4473
     19 C         138.1885  140.3829  164.8408 C.3     1  UNL1        0.0513
     20 C         137.7518  140.5684  163.4179 C.3     1  UNL1        0.2086
     21 C         144.3567  142.3876  164.4417 C.3     1  UNL1        0.0556
     22 C         144.8499  140.9733  164.3612 C.3     1  UNL1        0.0916
     23 C         144.0165  139.9257  163.6842 C.ar    1  UNL1        0.2053
     24 N         144.1576  139.4701  162.2621 N.ar    1  UNL1       -0.2168
     25 C         143.1241  138.4126  162.0095 C.ar    1  UNL1        0.0923
     26 C         142.9082  137.6815  160.7177 C.3     1  UNL1        0.0551
     27 C         142.3443  138.2148  163.2756 C.ar    1  UNL1        0.1377
     28 O         142.8959  139.1500  164.3106 O.2     1  UNL1       -0.4430
     29 C         141.2119  137.2511  163.4721 C.3     1  UNL1        0.0658
     30 C         139.8543  137.5658  162.9172 C.3     1  UNL1        0.0085
@<TRIPOS>BOND
     1    19    20    1
     2    20    18    1
     3    18    16    1
     4    16    17    2
     5    16    15    1
     6    15    13    1
     7    13     1    1
     8     1     2   ar
     9     2     3   ar
    10     3     7    1
    11     7     8    1
    12     8     9    1
    13     9    10    1
    14    10    11    1
    15    11    12    1
    16     3     4   ar
    17     4     5   ar
    18     5    21    1
    19    21    22    1
    20    22    23    1
    21    23    24   ar
    22    24    25   ar
    23    25    26    1
    24    25    27   ar
    25    27    29    1
    26    29    30    1
    27    27    28   ar
    28     5     6   ar
    29     6     1   ar
    30    12     7    1
    31    28    23   ar
    32    13    14    1
@<TRIPOS>MOLECULE
*****
 30 32 0 0 0
SMALL
GASTEIGER

@<TRIPOS>ATOM
      1 C         141.0731  142.4390  167.3104 C.ar    1  UNL1        0.1297
      2 C         142.2358  142.1647  166.4034 C.ar    1  UNL1        0.0486
      3 C         142.2399  142.7062  165.0045 C.ar    1  UNL1        0.0519
      4 C         141.0813  143.5219  164.5126 C.ar    1  UNL1        0.0294
      5 C         139.9185  143.7963  165.4196 C.ar    1  UNL1        0.0621
      6 N         139.9144  143.2548  166.8185 N.ar    1  UNL1       -0.2351
      7 N         143.4028  142.4318  164.0975 N.pl3   1  UNL1       -0.3027
      8 C         143.4212  142.9992  162.7091 C.3     1  UNL1        0.1231
      9 C         144.5839  142.7249  161.8021 C.3     1  UNL1        0.1636
     10 O         145.7284  141.8831  162.2835 O.3     1  UNL1       -0.3501
     11 C         145.7100  141.3157  163.6719 C.3     1  UNL1        0.1636
     12 C         144.5472  141.5900  164.5789 C.3     1  UNL1        0.1231
     13 N         141.0690  141.8976  168.7092 N.pl3   1  UNL1       -0.3090
     14 H         141.3288  142.4765  169.4619 H       1  UNL1        0.1487
     15 C         140.6690  140.4741  168.9613 C.3     1  UNL1        0.1996
     16 C         139.2226  140.1234  169.1487 C.2     1  UNL1        0.3373
     17 O         138.4895  140.5920  170.3706 O.2     1  UNL1       -0.2482
     18 O         138.5094  139.3040  168.1143 O.3     1  UNL1       -0.4473
     19 C         138.4702  138.3463  165.6995 C.3     1  UNL1        0.0513
     20 C         138.9156  139.3966  166.6733 C.3     1  UNL1        0.2086
     21 C         138.7598  144.6121  164.9278 C.3     1  UNL1        0.0556
     22 C         137.5556  143.9312  164.3479 C.3     1  UNL1        0.0916
     23 C         137.7245  142.8814  163.2897 C.ar    1  UNL1        0.2053
     24 N         138.0978  143.1254  161.8575 N.ar    1  UNL1       -0.2168
     25 C         138.1538  141.7982  161.1607 C.ar    1  UNL1        0.0923
     26 C         138.4895  141.5744  159.7159 C.3     1  UNL1        0.0551
     27 C         137.8151  140.7341  162.1622 C.ar    1  UNL1        0.1377
     28 O         137.5498  141.4036  163.4780 O.2     1  UNL1       -0.4430
     29 C         137.7527  139.2595  161.8949 C.3     1  UNL1        0.0658
     30 C         139.0065  138.4369  161.9308 C.3     1  UNL1        0.0085
@<TRIPOS>BOND
     1    19    20    1
     2    20    18    1
     3    18    16    1
     4    16    17    2
     5    16    15    1
     6    15    13    1
     7    13     1    1
     8     1     2   ar
     9     2     3   ar
    10     3     7    1
    11     7     8    1
    12     8     9    1
    13     9    10    1
    14    10    11    1
    15    11    12    1
    16     3     4   ar
    17     4     5   ar
    18     5    21    1
    19    21    22    1
    20    22    23    1
    21    23    24   ar
    22    24    25   ar
    23    25    26    1
    24    25    27   ar
    25    27    29    1
    26    29    30    1
    27    27    28   ar
    28     5     6   ar
    29     6     1   ar
    30    12     7    1
    31    28    23   ar
    32    13    14    1
@<TRIPOS>MOLECULE
*****
 30 32 0 0 0
SMALL
GASTEIGER

@<TRIPOS>ATOM
      1 C         142.3317  140.4617  167.4615 C.ar    1  UNL1        0.1297
      2 C         142.8145  141.5679  166.5708 C.ar    1  UNL1        0.0486
      3 C         142.8497  141.3724  165.0841 C.ar    1  UNL1        0.0519
      4 C         142.4021  140.0708  164.4879 C.ar    1  UNL1        0.0294
      5 C         141.9193  138.9647  165.3785 C.ar    1  UNL1        0.0621
      6 N         141.8841  139.1601  166.8653 N.ar    1  UNL1       -0.2351
      7 N         143.3326  142.4787  164.1934 N.pl3   1  UNL1       -0.3027
      8 C         143.0448  143.9073  164.5487 C.3     1  UNL1        0.1231
      9 C         143.5276  145.0135  163.6582 C.3     1  UNL1        0.1636
     10 O         144.2982  144.6911  162.4122 O.3     1  UNL1       -0.3501
     11 C         144.5859  143.2625  162.0569 C.3     1  UNL1        0.1636
     12 C         144.1031  142.1563  162.9475 C.3     1  UNL1        0.1231
     13 N         142.2965  140.6572  168.9483 N.pl3   1  UNL1       -0.3090
     14 H         142.9741  141.2209  169.3868 H       1  UNL1        0.1487
     15 C         141.2290  139.9937  169.7669 C.3     1  UNL1        0.1996
     16 C         139.7896  140.3633  169.5637 C.2     1  UNL1        0.3373
     17 O         138.9410  139.5772  168.6087 O.2     1  UNL1       -0.2482
     18 O         139.1987  141.5191  170.3154 O.3     1  UNL1       -0.4473
     19 C         140.4245  143.7226  169.6894 C.3     1  UNL1        0.0513
     20 C         140.0638  142.6805  170.7062 C.3     1  UNL1        0.2086
     21 C         141.4717  137.6630  164.7824 C.3     1  UNL1        0.0556
     22 C         140.0129  137.4110  164.5408 C.3     1  UNL1        0.0916
     23 C         139.2040  138.3920  163.7448 C.ar    1  UNL1        0.2053
     24 N         138.7708  138.2254  162.3184 N.ar    1  UNL1       -0.2168
     25 C         137.9854  139.4421  161.9274 C.ar    1  UNL1        0.0923
     26 C         137.3617  139.6958  160.5871 C.3     1  UNL1        0.0551
     27 C         137.9333  140.3606  163.1123 C.ar    1  UNL1        0.1377
     28 O         138.6864  139.7116  164.2354 O.2     1  UNL1       -0.4430
     29 C         137.2484  141.6940  163.1647 C.3     1  UNL1        0.0658
     30 C         137.8538  142.8762  162.4676 C.3     1  UNL1        0.0085
@<TRIPOS>BOND
     1    19    20    1
     2    20    18    1
     3    18    16    1
     4    16    17    2
     5    16    15    1
     6    15    13    1
     7    13     1    1
     8     1     2   ar
     9     2     3   ar
    10     3     7    1
    11     7     8    1
    12     8     9    1
    13     9    10    1
    14    10    11    1
    15    11    12    1
    16     3     4   ar
    17     4     5   ar
    18     5    21    1
    19    21    22    1
    20    22    23    1
    21    23    24   ar
    22    24    25   ar
    23    25    26    1
    24    25    27   ar
    25    27    29    1
    26    29    30    1
    27    27    28   ar
    28     5     6   ar
    29     6     1   ar
    30    12     7    1
    31    28    23   ar
    32    13    14    1
@<TRIPOS>MOLECULE
*****
 30 32 0 0 0
SMALL
GASTEIGER

@<TRIPOS>ATOM
      1 C         141.5742  143.3769  164.5590 C.ar    1  UNL1        0.1297
      2 C         140.9050  143.2425  165.8947 C.ar    1  UNL1        0.0486
      3 C         141.2379  142.0838  166.7872 C.ar    1  UNL1        0.0519
      4 C         142.2400  141.0594  166.3440 C.ar    1  UNL1        0.0294
      5 C         142.9092  141.1938  165.0083 C.ar    1  UNL1        0.0621
      6 N         142.5763  142.3525  164.1158 N.ar    1  UNL1       -0.2351
      7 N         140.5686  141.9494  168.1229 N.pl3   1  UNL1       -0.3027
      8 C         140.5579  143.1074  169.0762 C.3     1  UNL1        0.1231
      9 C         139.8887  142.9732  170.4119 C.3     1  UNL1        0.1636
     10 O         139.2300  141.6808  170.7943 O.3     1  UNL1       -0.3501
     11 C         139.2407  140.5228  169.8409 C.3     1  UNL1        0.1636
     12 C         139.9100  140.6571  168.5052 C.3     1  UNL1        0.1231
     13 N         141.2414  144.5356  163.6665 N.pl3   1  UNL1       -0.3090
     14 H         141.5421  145.4424  163.9043 H       1  UNL1        0.1487
     15 C         140.4504  144.3128  162.4117 C.3     1  UNL1        0.1996
     16 C         139.1816  145.0784  162.1790 C.2     1  UNL1        0.3373
     17 O         139.2253  146.4119  161.4936 O.2     1  UNL1       -0.2482
     18 O         137.8691  144.5104  162.6318 O.3     1  UNL1       -0.4473
     19 C         137.6529  142.5391  164.3101 C.3     1  UNL1        0.0513
     20 C         137.7405  143.0400  162.8990 C.3     1  UNL1        0.2086
     21 C         143.9114  140.1694  164.5651 C.3     1  UNL1        0.0556
     22 C         143.4463  138.8450  164.0362 C.3     1  UNL1        0.0916
     23 C         141.9821  138.5203  164.0097 C.ar    1  UNL1        0.2053
     24 N         141.0839  138.5957  162.8108 N.ar    1  UNL1       -0.2168
     25 C         139.7056  138.1851  163.2376 C.ar    1  UNL1        0.0923
     26 C         138.4937  138.1159  162.3564 C.3     1  UNL1        0.0551
     27 C         139.7522  137.8560  164.7003 C.ar    1  UNL1        0.1377
     28 O         141.1591  138.0631  165.1775 O.2     1  UNL1       -0.4430
     29 C         138.5951  137.3998  165.5386 C.3     1  UNL1        0.0658
     30 C         137.9160  138.3624  166.4673 C.3     1  UNL1        0.0085
@<TRIPOS>BOND
     1    19    20    1
     2    20    18    1
     3    18    16    1
     4    16    17    2
     5    16    15    1
     6    15    13    1
     7    13     1    1
     8     1     2   ar
     9     2     3   ar
    10     3     7    1
    11     7     8    1
    12     8     9    1
    13     9    10    1
    14    10    11    1
    15    11    12    1
    16     3     4   ar
    17     4     5   ar
    18     5    21    1
    19    21    22    1
    20    22    23    1
    21    23    24   ar
    22    24    25   ar
    23    25    26    1
    24    25    27   ar
    25    27    29    1
    26    29    30    1
    27    27    28   ar
    28     5     6   ar
    29     6     1   ar
    30    12     7    1
    31    28    23   ar
    32    13    14    1
@<TRIPOS>MOLECULE
*****
 30 32 0 0 0
SMALL
GASTEIGER

@<TRIPOS>ATOM
      1 C         140.8428  142.6178  167.1396 C.ar    1  UNL1        0.1297
      2 C         142.0575  142.2919  166.3221 C.ar    1  UNL1        0.0486
      3 C         142.1525  142.7603  164.9003 C.ar    1  UNL1        0.0519
      4 C         141.0328  143.5547  164.2960 C.ar    1  UNL1        0.0294
      5 C         139.8181  143.8806  165.1135 C.ar    1  UNL1        0.0621
      6 N         139.7232  143.4121  166.5353 N.ar    1  UNL1       -0.2351
      7 N         143.3673  142.4344  164.0828 N.pl3   1  UNL1       -0.3027
      8 C         143.4669  142.9119  162.6644 C.3     1  UNL1        0.1231
      9 C         144.6816  142.5860  161.8469 C.3     1  UNL1        0.1636
     10 O         145.7967  141.7825  162.4479 O.3     1  UNL1       -0.3501
     11 C         145.6970  141.3051  163.8664 C.3     1  UNL1        0.1636
     12 C         144.4823  141.6310  164.6839 C.3     1  UNL1        0.1231
     13 N         140.7479  142.1494  168.5614 N.pl3   1  UNL1       -0.3090
     14 H         140.3354  141.2793  168.7665 H       1  UNL1        0.1487
     15 C         141.2813  143.0066  169.6707 C.3     1  UNL1        0.1996
     16 C         142.6702  142.7818  170.1907 C.2     1  UNL1        0.3373
     17 O         143.3516  143.8486  170.9955 O.2     1  UNL1       -0.2482
     18 O         143.3778  141.4901  169.9059 O.3     1  UNL1       -0.4473
     19 C         142.4502  139.0689  169.7413 C.3     1  UNL1        0.0513
     20 C         142.9251  140.2244  170.5714 C.3     1  UNL1        0.2086
     21 C         138.6983  144.6749  164.5091 C.3     1  UNL1        0.0556
     22 C         137.5219  143.9704  163.9013 C.3     1  UNL1        0.0916
     23 C         137.7273  143.0056  162.7712 C.ar    1  UNL1        0.2053
     24 N         138.2854  143.3377  161.4190 N.ar    1  UNL1       -0.2168
     25 C         138.3137  142.0767  160.6069 C.ar    1  UNL1        0.0923
     26 C         138.7976  141.9494  159.1929 C.3     1  UNL1        0.0551
     27 C         137.7730  140.9655  161.4572 C.ar    1  UNL1        0.1377
     28 O         137.4106  141.5397  162.7948 O.2     1  UNL1       -0.4430
     29 C         137.6214  139.5320  161.0427 C.3     1  UNL1        0.0658
     30 C         138.0128  138.4331  161.9857 C.3     1  UNL1        0.0085
@<TRIPOS>BOND
     1    19    20    1
     2    20    18    1
     3    18    16    1
     4    16    17    2
     5    16    15    1
     6    15    13    1
     7    13     1    1
     8     1     2   ar
     9     2     3   ar
    10     3     7    1
    11     7     8    1
    12     8     9    1
    13     9    10    1
    14    10    11    1
    15    11    12    1
    16     3     4   ar
    17     4     5   ar
    18     5    21    1
    19    21    22    1
    20    22    23    1
    21    23    24   ar
    22    24    25   ar
    23    25    26    1
    24    25    27   ar
    25    27    29    1
    26    29    30    1
    27    27    28   ar
    28     5     6   ar
    29     6     1   ar
    30    12     7    1
    31    28    23   ar
    32    13    14    1
@<TRIPOS>MOLECULE
*****
 30 32 0 0 0
SMALL
GASTEIGER

@<TRIPOS>ATOM
      1 C         140.7707  141.2208  166.7570 C.ar    1  UNL1        0.1297
      2 C         141.9581  141.1388  165.8442 C.ar    1  UNL1        0.0486
      3 C         142.1213  142.1347  164.7345 C.ar    1  UNL1        0.0519
      4 C         141.0970  143.2126  164.5374 C.ar    1  UNL1        0.0294
      5 C         139.9095  143.2946  165.4502 C.ar    1  UNL1        0.0621
      6 N         139.7464  142.2987  166.5600 N.ar    1  UNL1       -0.2351
      7 N         143.3088  142.0526  163.8217 N.pl3   1  UNL1       -0.3027
      8 C         143.1433  142.3006  162.3516 C.3     1  UNL1        0.1231
      9 C         144.3308  142.2186  161.4388 C.3     1  UNL1        0.1636
     10 O         145.6838  141.8885  161.9961 O.3     1  UNL1       -0.3501
     11 C         145.8493  141.6405  163.4662 C.3     1  UNL1        0.1636
     12 C         144.6617  141.7226  164.3790 C.3     1  UNL1        0.1231
     13 N         140.6076  140.2250  167.8668 N.pl3   1  UNL1       -0.3090
     14 H         141.3910  139.7370  168.2094 H       1  UNL1        0.1487
     15 C         139.2508  139.9727  168.4547 C.3     1  UNL1        0.1996
     16 C         138.9715  140.3409  169.8817 C.2     1  UNL1        0.3373
     17 O         137.7631  139.7868  170.5764 O.2     1  UNL1       -0.2482
     18 O         139.9006  141.2633  170.6139 O.3     1  UNL1       -0.4473
     19 C         140.6188  143.6112  169.7647 C.3     1  UNL1        0.0513
     20 C         139.6838  142.7464  170.5571 C.3     1  UNL1        0.2086
     21 C         138.8851  144.3725  165.2531 C.3     1  UNL1        0.0556
     22 C         137.6951  144.1247  164.3743 C.3     1  UNL1        0.0916
     23 C         137.8143  143.2114  163.1903 C.ar    1  UNL1        0.2053
     24 N         137.5539  141.7342  163.1865 N.ar    1  UNL1       -0.2168
     25 C         137.7935  141.2249  161.7961 C.ar    1  UNL1        0.0923
     26 C         137.6499  139.8028  161.3410 C.3     1  UNL1        0.0551
     27 C         138.2020  142.3874  160.9406 C.ar    1  UNL1        0.1377
     28 O         138.2148  143.6151  161.8023 O.2     1  UNL1       -0.4430
     29 C         138.5385  142.3319  159.4800 C.3     1  UNL1        0.0658
     30 C         139.8987  141.8772  159.0403 C.3     1  UNL1        0.0085
@<TRIPOS>BOND
     1    19    20    1
     2    20    18    1
     3    18    16    1
     4    16    17    2
     5    16    15    1
     6    15    13    1
     7    13     1    1
     8     1     2   ar
     9     2     3   ar
    10     3     7    1
    11     7     8    1
    12     8     9    1
    13     9    10    1
    14    10    11    1
    15    11    12    1
    16     3     4   ar
    17     4     5   ar
    18     5    21    1
    19    21    22    1
    20    22    23    1
    21    23    24   ar
    22    24    25   ar
    23    25    26    1
    24    25    27   ar
    25    27    29    1
    26    29    30    1
    27    27    28   ar
    28     5     6   ar
    29     6     1   ar
    30    12     7    1
    31    28    23   ar
    32    13    14    1
@<TRIPOS>MOLECULE
*****
 30 32 0 0 0
SMALL
GASTEIGER

@<TRIPOS>ATOM
      1 C         142.7095  139.6049  165.2076 C.ar    1  UNL1        0.1297
      2 C         141.9601  139.7516  166.4986 C.ar    1  UNL1        0.0486
      3 C         142.0255  141.0416  167.2614 C.ar    1  UNL1        0.0519
      4 C         142.8403  142.1848  166.7331 C.ar    1  UNL1        0.0294
      5 C         143.5896  142.0381  165.4420 C.ar    1  UNL1        0.0621
      6 N         143.5243  140.7481  164.6793 N.ar    1  UNL1       -0.2351
      7 N         141.2760  141.1882  168.5525 N.pl3   1  UNL1       -0.3027
      8 C         140.9732  139.9781  169.3855 C.3     1  UNL1        0.1231
      9 C         140.2238  140.1248  170.6766 C.3     1  UNL1        0.1636
     10 O         139.7772  141.4815  171.1347 O.3     1  UNL1       -0.3501
     11 C         140.0800  142.6916  170.3016 C.3     1  UNL1        0.1636
     12 C         140.8295  142.5450  169.0105 C.3     1  UNL1        0.1231
     13 N         142.6441  138.3150  164.4448 N.pl3   1  UNL1       -0.3090
     14 H         143.3964  138.0440  163.8705 H       1  UNL1        0.1487
     15 C         141.4325  137.4378  164.5571 C.3     1  UNL1        0.1996
     16 C         140.3117  137.5770  163.5700 C.2     1  UNL1        0.3373
     17 O         140.5816  137.4239  162.1024 O.2     1  UNL1       -0.2482
     18 O         138.9211  137.8692  164.0504 O.3     1  UNL1       -0.4473
     19 C         138.1271  139.1018  166.1952 C.3     1  UNL1        0.0513
     20 C         138.6167  137.8556  165.5191 C.3     1  UNL1        0.2086
     21 C         144.4045  143.1813  164.9137 C.3     1  UNL1        0.0556
     22 C         144.2896  143.5813  163.4726 C.3     1  UNL1        0.0916
     23 C         142.9767  144.0634  162.9304 C.ar    1  UNL1        0.2053
     24 N         142.6834  144.3964  161.4975 N.ar    1  UNL1       -0.2168
     25 C         141.2521  144.8360  161.4074 C.ar    1  UNL1        0.0923
     26 C         140.5375  145.2620  160.1593 C.3     1  UNL1        0.0551
     27 C         140.6608  144.7747  162.7846 C.ar    1  UNL1        0.1377
     28 O         141.7267  144.2972  163.7259 O.2     1  UNL1       -0.4430
     29 C         139.2512  145.1287  163.1555 C.3     1  UNL1        0.0658
     30 C         138.1428  144.1475  162.9129 C.3     1  UNL1        0.0085
@<TRIPOS>BOND
     1    19    20    1
     2    20    18    1
     3    18    16    1
     4    16    17    2
     5    16    15    1
     6    15    13    1
     7    13     1    1
     8     1     2   ar
     9     2     3   ar
    10     3     7    1
    11     7     8    1
    12     8     9    1
    13     9    10    1
    14    10    11    1
    15    11    12    1
    16     3     4   ar
    17     4     5   ar
    18     5    21    1
    19    21    22    1
    20    22    23    1
    21    23    24   ar
    22    24    25   ar
    23    25    26    1
    24    25    27   ar
    25    27    29    1
    26    29    30    1
    27    27    28   ar
    28     5     6   ar
    29     6     1   ar
    30    12     7    1
    31    28    23   ar
    32    13    14    1
@<TRIPOS>MOLECULE
*****
 30 32 0 0 0
SMALL
GASTEIGER

@<TRIPOS>ATOM
      1 C         143.4931  140.0192  164.8060 C.ar    1  UNL1        0.1297
      2 C         143.3363  140.9350  165.9835 C.ar    1  UNL1        0.0486
      3 C         142.0940  140.8728  166.8218 C.ar    1  UNL1        0.0519
      4 C         141.0085  139.8948  166.4826 C.ar    1  UNL1        0.0294
      5 C         141.1653  138.9790  165.3051 C.ar    1  UNL1        0.0621
      6 N         142.4076  139.0412  164.4668 N.ar    1  UNL1       -0.2351
      7 N         141.9372  141.7887  167.9994 N.pl3   1  UNL1       -0.3027
      8 C         140.6553  142.5418  168.1983 C.3     1  UNL1        0.1231
      9 C         140.4985  143.4577  169.3758 C.3     1  UNL1        0.1636
     10 O         141.6236  143.6205  170.3545 O.3     1  UNL1       -0.3501
     11 C         142.9056  142.8674  170.1555 C.3     1  UNL1        0.1636
     12 C         143.0623  141.9515  168.9779 C.3     1  UNL1        0.1231
     13 N         144.7354  140.0814  163.9676 N.pl3   1  UNL1       -0.3090
     14 H         145.0532  139.2765  163.4982 H       1  UNL1        0.1487
     15 C         145.4934  141.3698  163.8445 C.3     1  UNL1        0.1996
     16 C         144.9464  142.4844  163.0027 C.2     1  UNL1        0.3373
     17 O         144.9573  142.3695  161.5072 O.2     1  UNL1       -0.2482
     18 O         144.3885  143.7138  163.6566 O.3     1  UNL1       -0.4473
     19 C         142.3455  145.3167  163.7391 C.3     1  UNL1        0.0513
     20 C         143.3526  144.5354  162.9482 C.3     1  UNL1        0.2086
     21 C         140.0797  138.0009  164.9659 C.3     1  UNL1        0.0556
     22 C         138.6827  138.4872  164.7178 C.3     1  UNL1        0.0916
     23 C         138.4518  139.8831  164.2194 C.ar    1  UNL1        0.2053
     24 N         138.4609  140.3196  162.7843 N.ar    1  UNL1       -0.2168
     25 C         138.1861  141.7938  162.7465 C.ar    1  UNL1        0.0923
     26 C         138.1045  142.6441  161.5135 C.3     1  UNL1        0.0551
     27 C         138.0072  142.2683  164.1582 C.ar    1  UNL1        0.1377
     28 O         138.1714  141.0874  165.0685 O.2     1  UNL1       -0.4430
     29 C         137.7153  143.6763  164.5847 C.3     1  UNL1        0.0658
     30 C         138.8402  144.5950  164.9598 C.3     1  UNL1        0.0085
@<TRIPOS>BOND
     1    19    20    1
     2    20    18    1
     3    18    16    1
     4    16    17    2
     5    16    15    1
     6    15    13    1
     7    13     1    1
     8     1     2   ar
     9     2     3   ar
    10     3     7    1
    11     7     8    1
    12     8     9    1
    13     9    10    1
    14    10    11    1
    15    11    12    1
    16     3     4   ar
    17     4     5   ar
    18     5    21    1
    19    21    22    1
    20    22    23    1
    21    23    24   ar
    22    24    25   ar
    23    25    26    1
    24    25    27   ar
    25    27    29    1
    26    29    30    1
    27    27    28   ar
    28     5     6   ar
    29     6     1   ar
    30    12     7    1
    31    28    23   ar
    32    13    14    1
@<TRIPOS>MOLECULE
*****
 30 32 0 0 0
SMALL
GASTEIGER

@<TRIPOS>ATOM
      1 C         143.4391  141.4169  165.4661 C.ar    1  UNL1        0.1297
      2 C         142.8937  141.8642  166.7899 C.ar    1  UNL1        0.0486
      3 C         141.8998  141.0095  167.5190 C.ar    1  UNL1        0.0519
      4 C         141.4512  139.7076  166.9243 C.ar    1  UNL1        0.0294
      5 C         141.9965  139.2603  165.6005 C.ar    1  UNL1        0.0621
      6 N         142.9905  140.1150  164.8714 N.ar    1  UNL1       -0.2351
      7 N         141.3544  141.4568  168.8428 N.pl3   1  UNL1       -0.3027
      8 C         140.5974  142.7478  168.9446 C.3     1  UNL1        0.1231
      9 C         140.0520  143.1952  170.2683 C.3     1  UNL1        0.1636
     10 O         140.2636  142.3515  171.4905 O.3     1  UNL1       -0.3501
     11 C         141.0205  141.0605  171.3887 C.3     1  UNL1        0.1636
     12 C         141.5659  140.6132  170.0649 C.3     1  UNL1        0.1231
     13 N         144.4331  142.2716  164.7371 N.pl3   1  UNL1       -0.3090
     14 H         145.1547  141.8514  164.2156 H       1  UNL1        0.1487
     15 C         144.3277  143.7664  164.8025 C.3     1  UNL1        0.1996
     16 C         143.4724  144.5020  163.8139 C.2     1  UNL1        0.3373
     17 O         144.0356  144.8935  162.4800 O.2     1  UNL1       -0.2482
     18 O         142.0537  144.8460  164.1594 O.3     1  UNL1       -0.4473
     19 C         140.0375  143.5890  165.2104 C.3     1  UNL1        0.0513
     20 C         140.9839  143.7988  164.0658 C.3     1  UNL1        0.2086
     21 C         141.5479  137.9584  165.0057 C.3     1  UNL1        0.0556
     22 C         140.0855  137.6859  164.8137 C.3     1  UNL1        0.0916
     23 C         139.2595  138.5959  163.9536 C.ar    1  UNL1        0.2053
     24 N         138.7520  139.9535  164.3399 N.ar    1  UNL1       -0.2168
     25 C         137.9749  140.5047  163.1812 C.ar    1  UNL1        0.0923
     26 C         137.2906  141.8387  163.1332 C.3     1  UNL1        0.0551
     27 C         138.0022  139.4877  162.0789 C.ar    1  UNL1        0.1377
     28 O         138.7962  138.3080  162.5563 O.2     1  UNL1       -0.4430
     29 C         137.3502  139.6260  160.7353 C.3     1  UNL1        0.0658
     30 C         138.0545  140.3578  159.6315 C.3     1  UNL1        0.0085
@<TRIPOS>BOND
     1    19    20    1
     2    20    18    1
     3    18    16    1
     4    16    17    2
     5    16    15    1
     6    15    13    1
     7    13     1    1
     8     1     2   ar
     9     2     3   ar
    10     3     7    1
    11     7     8    1
    12     8     9    1
    13     9    10    1
    14    10    11    1
    15    11    12    1
    16     3     4   ar
    17     4     5   ar
    18     5    21    1
    19    21    22    1
    20    22    23    1
    21    23    24   ar
    22    24    25   ar
    23    25    26    1
    24    25    27   ar
    25    27    29    1
    26    29    30    1
    27    27    28   ar
    28     5     6   ar
    29     6     1   ar
    30    12     7    1
    31    28    23   ar
    32    13    14    1
