@<TRIPOS>MOLECULE
*****
 35 38 0 0 0
SMALL
GASTEIGER

@<TRIPOS>ATOM
      1 C         141.5591  140.7214  160.3696 C.3     1  UNL1        0.0393
      2 C         141.6854  140.3596  158.9194 C.3     1  UNL1        0.0072
      3 C         140.6926  139.4282  158.2895 C.3     1  UNL1        0.0177
      4 C         139.5734  138.8586  159.1097 C.3     1  UNL1        0.0724
      5 N         139.4470  139.2203  160.5600 N.3     1  UNL1       -0.2686
      6 C         140.4398  140.1517  161.1899 C.3     1  UNL1        0.0767
      7 C         142.7112  143.1119  160.6905 C.2     1  UNL1        0.0540
      8 N         143.8175  143.6494  161.5491 N.2     1  UNL1       -0.2503
      9 C         144.3419  142.5225  162.3887 C.2     1  UNL1        0.0770
     10 C         145.4307  142.4605  163.4187 C.2     1  UNL1        0.0184
     11 C         145.7372  141.1646  164.1089 C.2     1  UNL1       -0.0027
     12 C         144.9550  139.9306  163.7693 C.2     1  UNL1       -0.0213
     13 C         143.8663  139.9925  162.7393 C.3     1  UNL1        0.0535
     14 C         143.5598  141.2884  162.0491 C.2     1  UNL1       -0.0030
     15 C         142.5519  141.6527  160.9995 C.2     1  UNL1       -0.0098
     16 C         142.9410  143.6274  158.6456 C.3     1  UNL1        0.0059
     17 C         141.9056  143.8959  159.6973 C.3     1  UNL1        0.0352
     18 C         140.8703  144.1644  160.7490 C.3     1  UNL1        0.0059
     19 C         141.1001  144.6799  158.7041 C.3     1  UNL1        0.0059
     20 C         138.3279  138.6507  161.3803 C.3     1  UNL1        0.1014
     21 C         138.3592  138.7676  162.8754 C.ar    1  UNL1        0.0213
     22 C         138.8021  137.6024  163.7098 C.ar    1  UNL1       -0.0007
     23 C         138.8334  137.7194  165.2049 C.ar    1  UNL1       -0.0001
     24 C         138.4218  139.0016  165.8657 C.ar    1  UNL1        0.0024
     25 C         137.9789  140.1668  165.0314 C.ar    1  UNL1        0.0294
     26 C         137.9476  140.0499  163.5363 C.ar    1  UNL1        0.1374
     27 F         137.5047  141.2151  162.7019 F       1  UNL1       -0.2045
     28 C         138.4531  139.1185  167.3608 C.2     1  UNL1        0.0048
     29 C         139.3776  140.1007  168.0170 C.2     1  UNL1        0.0598
     30 C         139.4090  140.2177  169.5121 C.2     1  UNL1        0.2679
     31 O         138.1518  140.0208  170.3063 O.2     1  UNL1       -0.2681
     32 N         140.6974  140.5317  170.2130 N.am    1  UNL1       -0.1934
     33 O         140.7287  140.6486  171.7082 O.3     1  UNL1       -0.2949
     34 H         141.5225  140.6609  169.6918 H       1  UNL1        0.1825
     35 H         139.8394  140.4940  172.0633 H       1  UNL1        0.2414
@<TRIPOS>BOND
     1    16    17    1
     2    17    18    1
     3    17    19    1
     4    17     7    1
     5     7     8    2
     6     8     9    1
     7     9    10    2
     8    10    11    1
     9    11    12    2
    10    12    13    1
    11    13    14    1
    12    14    15    2
    13    15     1    1
    14     1     2    1
    15     2     3    1
    16     3     4    1
    17     4     5    1
    18     5    20    1
    19    20    21    1
    20    21    22   ar
    21    22    23   ar
    22    23    24   ar
    23    24    28    1
    24    28    29    2
    25    29    30    1
    26    30    31    2
    27    30    32   am
    28    32    33    1
    29    24    25   ar
    30    25    26   ar
    31    26    27    1
    32     5     6    1
    33    15     7    1
    34     6     1    1
    35    14     9    1
    36    26    21   ar
    37    32    34    1
    38    33    35    1
@<TRIPOS>MOLECULE
*****
 35 38 0 0 0
SMALL
GASTEIGER

@<TRIPOS>ATOM
      1 C         140.8814  141.5789  160.2284 C.3     1  UNL1        0.0393
      2 C         140.2002  142.0142  158.9650 C.3     1  UNL1        0.0072
      3 C         138.9252  141.3521  158.5338 C.3     1  UNL1        0.0177
      4 C         138.3314  140.2545  159.3661 C.3     1  UNL1        0.0724
      5 N         139.0126  139.8191  160.6296 N.3     1  UNL1       -0.2686
      6 C         140.2876  140.4813  161.0608 C.3     1  UNL1        0.0767
      7 C         143.4968  142.0839  160.0049 C.2     1  UNL1        0.0540
      8 N         144.4836  142.9224  160.7619 N.2     1  UNL1       -0.2503
      9 C         143.7531  143.5978  161.8845 C.2     1  UNL1        0.0770
     10 C         144.2118  144.5418  162.9561 C.2     1  UNL1        0.0184
     11 C         143.2322  145.0648  163.9645 C.2     1  UNL1       -0.0027
     12 C         141.7939  144.6437  163.9012 C.2     1  UNL1       -0.0213
     13 C         141.3352  143.6997  162.8296 C.3     1  UNL1        0.0535
     14 C         142.3148  143.1767  161.8213 C.2     1  UNL1       -0.0030
     15 C         142.1564  142.2411  160.6596 C.2     1  UNL1       -0.0098
     16 C         143.7648  142.4585  157.9342 C.3     1  UNL1        0.0059
     17 C         143.7975  141.2369  158.8040 C.3     1  UNL1        0.0352
     18 C         143.8302  140.0152  159.6738 C.3     1  UNL1        0.0059
     19 C         144.0982  140.3899  157.6031 C.3     1  UNL1        0.0059
     20 C         138.4189  138.7215  161.4619 C.3     1  UNL1        0.1014
     21 C         138.4221  138.8295  162.9580 C.ar    1  UNL1        0.0213
     22 C         138.8870  137.6729  163.7924 C.ar    1  UNL1       -0.0007
     23 C         138.8902  137.7810  165.2885 C.ar    1  UNL1       -0.0001
     24 C         138.4285  139.0454  165.9502 C.ar    1  UNL1        0.0024
     25 C         137.9636  140.2020  165.1158 C.ar    1  UNL1        0.0294
     26 C         137.9604  140.0940  163.6197 C.ar    1  UNL1        0.1374
     27 F         137.4954  141.2506  162.7853 F       1  UNL1       -0.2045
     28 C         138.4317  139.1534  167.4464 C.2     1  UNL1        0.0048
     29 C         139.4001  140.0727  168.1298 C.2     1  UNL1        0.0598
     30 C         139.4034  140.1807  169.6259 C.2     1  UNL1        0.2679
     31 O         138.1455  139.9175  170.3996 O.2     1  UNL1       -0.2681
     32 N         140.6644  140.5519  170.3484 N.am    1  UNL1       -0.1934
     33 O         140.6676  140.6599  171.8445 O.3     1  UNL1       -0.2949
     34 H         141.4900  140.7246  169.8406 H       1  UNL1        0.1825
     35 H         139.7817  140.4598  172.1850 H       1  UNL1        0.2414
@<TRIPOS>BOND
     1    16    17    1
     2    17    18    1
     3    17    19    1
     4    17     7    1
     5     7     8    2
     6     8     9    1
     7     9    10    2
     8    10    11    1
     9    11    12    2
    10    12    13    1
    11    13    14    1
    12    14    15    2
    13    15     1    1
    14     1     2    1
    15     2     3    1
    16     3     4    1
    17     4     5    1
    18     5    20    1
    19    20    21    1
    20    21    22   ar
    21    22    23   ar
    22    23    24   ar
    23    24    28    1
    24    28    29    2
    25    29    30    1
    26    30    31    2
    27    30    32   am
    28    32    33    1
    29    24    25   ar
    30    25    26   ar
    31    26    27    1
    32     5     6    1
    33    15     7    1
    34     6     1    1
    35    14     9    1
    36    26    21   ar
    37    32    34    1
    38    33    35    1
@<TRIPOS>MOLECULE
*****
 35 38 0 0 0
SMALL
GASTEIGER

@<TRIPOS>ATOM
      1 C         142.5682  140.3968  165.6834 C.3     1  UNL1        0.0393
      2 C         143.4932  139.2521  165.3941 C.3     1  UNL1        0.0072
      3 C         144.6320  139.4320  164.4345 C.3     1  UNL1        0.0177
      4 C         144.8457  140.7568  163.7641 C.3     1  UNL1        0.0724
      5 N         143.9207  141.9016  164.0534 N.3     1  UNL1       -0.2686
      6 C         142.7819  141.7217  165.0130 C.3     1  UNL1        0.0767
      7 C         140.0370  139.7865  166.2881 C.2     1  UNL1        0.0540
      8 N         139.2302  139.7394  167.5518 N.2     1  UNL1       -0.2503
      9 C         140.1240  140.1407  168.6876 C.2     1  UNL1        0.0770
     10 C         139.8758  140.2754  170.1608 C.2     1  UNL1        0.0184
     11 C         140.9868  140.7053  171.0722 C.2     1  UNL1       -0.0027
     12 C         142.3460  141.0004  170.5106 C.2     1  UNL1       -0.0213
     13 C         142.5942  140.8656  169.0374 C.3     1  UNL1        0.0535
     14 C         141.4832  140.4358  168.1260 C.2     1  UNL1       -0.0030
     15 C         141.4294  140.2169  166.6430 C.2     1  UNL1       -0.0098
     16 C         139.1055  140.8852  164.7308 C.3     1  UNL1        0.0059
     17 C         139.5389  139.4605  164.9113 C.3     1  UNL1        0.0352
     18 C         139.9723  138.0359  165.0918 C.3     1  UNL1        0.0059
     19 C         139.0407  139.1345  163.5345 C.3     1  UNL1        0.0059
     20 C         144.1344  143.2263  163.3832 C.3     1  UNL1        0.1014
     21 C         143.1826  143.6917  162.3213 C.ar    1  UNL1        0.0213
     22 C         143.3159  143.1795  160.9178 C.ar    1  UNL1       -0.0007
     23 C         142.3640  143.6449  159.8560 C.ar    1  UNL1       -0.0001
     24 C         141.2789  144.6225  160.1977 C.ar    1  UNL1        0.0024
     25 C         141.1455  145.1347  161.6012 C.ar    1  UNL1        0.0294
     26 C         142.0973  144.6694  162.6630 C.ar    1  UNL1        0.1374
     27 F         141.9640  145.1816  164.0665 F       1  UNL1       -0.2045
     28 C         140.3271  145.0879  159.1358 C.2     1  UNL1        0.0048
     29 C         140.8502  145.7685  157.9058 C.2     1  UNL1        0.0598
     30 C         139.8985  146.2339  156.8439 C.2     1  UNL1        0.2679
     31 O         139.5125  145.3112  155.7261 O.2     1  UNL1       -0.2681
     32 N         139.3328  147.6220  156.8998 N.am    1  UNL1       -0.1934
     33 O         138.3810  148.0873  155.8378 O.3     1  UNL1       -0.2949
     34 H         139.5861  148.2277  157.6334 H       1  UNL1        0.1825
     35 H         138.2391  147.3742  155.1958 H       1  UNL1        0.2414
@<TRIPOS>BOND
     1    16    17    1
     2    17    18    1
     3    17    19    1
     4    17     7    1
     5     7     8    2
     6     8     9    1
     7     9    10    2
     8    10    11    1
     9    11    12    2
    10    12    13    1
    11    13    14    1
    12    14    15    2
    13    15     1    1
    14     1     2    1
    15     2     3    1
    16     3     4    1
    17     4     5    1
    18     5    20    1
    19    20    21    1
    20    21    22   ar
    21    22    23   ar
    22    23    24   ar
    23    24    28    1
    24    28    29    2
    25    29    30    1
    26    30    31    2
    27    30    32   am
    28    32    33    1
    29    24    25   ar
    30    25    26   ar
    31    26    27    1
    32     5     6    1
    33    15     7    1
    34     6     1    1
    35    14     9    1
    36    26    21   ar
    37    32    34    1
    38    33    35    1
@<TRIPOS>MOLECULE
*****
 35 38 0 0 0
SMALL
GASTEIGER

@<TRIPOS>ATOM
      1 C         140.0523  138.7954  160.0678 C.3     1  UNL1        0.0393
      2 C         138.9283  139.7351  159.7467 C.3     1  UNL1        0.0072
      3 C         137.8444  139.9801  160.7543 C.3     1  UNL1        0.0177
      4 C         137.8846  139.2853  162.0830 C.3     1  UNL1        0.0724
      5 N         139.0087  138.3455  162.4042 N.3     1  UNL1       -0.2686
      6 C         140.0925  138.1005  161.3966 C.3     1  UNL1        0.0767
      7 C         142.5974  138.8303  159.2514 C.2     1  UNL1        0.0540
      8 N         143.3134  138.4354  157.9939 N.2     1  UNL1       -0.2503
      9 C         142.2947  137.9113  157.0255 C.2     1  UNL1        0.0770
     10 C         142.4186  137.3786  155.6288 C.2     1  UNL1        0.0184
     11 C         141.1968  136.9169  154.8912 C.2     1  UNL1       -0.0027
     12 C         139.8512  136.9880  155.5502 C.2     1  UNL1       -0.0213
     13 C         139.7274  137.5207  156.9469 C.3     1  UNL1        0.0535
     14 C         140.9491  137.9824  157.6846 C.2     1  UNL1       -0.0030
     15 C         141.1362  138.5504  159.0602 C.2     1  UNL1       -0.0098
     16 C         142.8449  140.7841  160.0397 C.3     1  UNL1        0.0059
     17 C         143.2313  139.4045  160.4837 C.3     1  UNL1        0.0352
     18 C         143.6177  138.0248  160.9277 C.3     1  UNL1        0.0059
     19 C         143.8651  139.9786  161.7160 C.3     1  UNL1        0.0059
     20 C         139.0489  137.6506  163.7329 C.3     1  UNL1        0.1014
     21 C         139.4093  138.4184  164.9701 C.ar    1  UNL1        0.0213
     22 C         138.3557  138.7353  165.9896 C.ar    1  UNL1       -0.0007
     23 C         138.7162  139.5031  167.2268 C.ar    1  UNL1       -0.0001
     24 C         140.1301  139.9540  167.4445 C.ar    1  UNL1        0.0024
     25 C         141.1837  139.6371  166.4249 C.ar    1  UNL1        0.0294
     26 C         140.8234  138.8693  165.1877 C.ar    1  UNL1        0.1374
     27 F         141.8770  138.5524  164.1682 F       1  UNL1       -0.2045
     28 C         140.4905  140.7218  168.6817 C.2     1  UNL1        0.0048
     29 C         141.2130  142.0313  168.5678 C.2     1  UNL1        0.0598
     30 C         141.5734  142.7992  169.8049 C.2     1  UNL1        0.2679
     31 O         140.5091  143.1678  170.7954 O.2     1  UNL1       -0.2681
     32 N         142.9981  143.1983  170.0516 N.am    1  UNL1       -0.1934
     33 O         143.3585  143.9662  171.2888 O.3     1  UNL1       -0.2949
     34 H         143.6968  142.9563  169.4015 H       1  UNL1        0.1825
     35 H         142.5599  144.1210  171.8173 H       1  UNL1        0.2414
@<TRIPOS>BOND
     1    16    17    1
     2    17    18    1
     3    17    19    1
     4    17     7    1
     5     7     8    2
     6     8     9    1
     7     9    10    2
     8    10    11    1
     9    11    12    2
    10    12    13    1
    11    13    14    1
    12    14    15    2
    13    15     1    1
    14     1     2    1
    15     2     3    1
    16     3     4    1
    17     4     5    1
    18     5    20    1
    19    20    21    1
    20    21    22   ar
    21    22    23   ar
    22    23    24   ar
    23    24    28    1
    24    28    29    2
    25    29    30    1
    26    30    31    2
    27    30    32   am
    28    32    33    1
    29    24    25   ar
    30    25    26   ar
    31    26    27    1
    32     5     6    1
    33    15     7    1
    34     6     1    1
    35    14     9    1
    36    26    21   ar
    37    32    34    1
    38    33    35    1
@<TRIPOS>MOLECULE
*****
 35 38 0 0 0
SMALL
GASTEIGER

@<TRIPOS>ATOM
      1 C         140.2486  139.3498  165.5811 C.3     1  UNL1        0.0393
      2 C         140.2209  137.9436  165.0599 C.3     1  UNL1        0.0072
      3 C         139.3731  137.6010  163.8708 C.3     1  UNL1        0.0177
      4 C         138.5530  138.6647  163.2029 C.3     1  UNL1        0.0724
      5 N         138.5806  140.0709  163.7242 N.3     1  UNL1       -0.2686
      6 C         139.4284  140.4135  164.9133 C.3     1  UNL1        0.0767
      7 C         142.5942  139.7692  166.7924 C.2     1  UNL1        0.0540
      8 N         143.0187  140.1426  168.1818 N.2     1  UNL1       -0.2503
      9 C         141.7831  140.2966  169.0183 C.2     1  UNL1        0.0770
     10 C         141.5864  140.6541  170.4617 C.2     1  UNL1        0.0184
     11 C         140.2016  140.7334  171.0327 C.2     1  UNL1       -0.0027
     12 C         139.0136  140.4552  170.1603 C.2     1  UNL1       -0.0213
     13 C         139.2103  140.0976  168.7169 C.3     1  UNL1        0.0535
     14 C         140.5951  140.0183  168.1459 C.2     1  UNL1       -0.0030
     15 C         141.0964  139.6924  166.7702 C.2     1  UNL1       -0.0098
     16 C         143.7886  138.1384  166.1492 C.3     1  UNL1        0.0059
     17 C         143.5073  139.5170  165.6293 C.3     1  UNL1        0.0352
     18 C         143.2260  140.8956  165.1095 C.3     1  UNL1        0.0059
     19 C         144.4204  139.2647  164.4663 C.3     1  UNL1        0.0059
     20 C         137.7605  141.1346  163.0564 C.3     1  UNL1        0.1014
     21 C         138.4166  142.1188  162.1340 C.ar    1  UNL1        0.0213
     22 C         138.5104  141.8238  160.6663 C.ar    1  UNL1       -0.0007
     23 C         139.1665  142.8081  159.7440 C.ar    1  UNL1       -0.0001
     24 C         139.7287  144.0874  160.2892 C.ar    1  UNL1        0.0024
     25 C         139.6349  144.3825  161.7569 C.ar    1  UNL1        0.0294
     26 C         138.9788  143.3982  162.6793 C.ar    1  UNL1        0.1374
     27 F         138.8849  143.6932  164.1470 F       1  UNL1       -0.2045
     28 C         140.3848  145.0717  159.3668 C.2     1  UNL1        0.0048
     29 C         139.9727  145.1391  157.9261 C.2     1  UNL1        0.0598
     30 C         140.6287  146.1233  157.0036 C.2     1  UNL1        0.2679
     31 O         142.1243  146.1729  156.9007 O.2     1  UNL1       -0.2681
     32 N         139.7891  147.0579  156.1841 N.am    1  UNL1       -0.1934
     33 O         140.4452  148.0421  155.2616 O.3     1  UNL1       -0.2949
     34 H         138.8075  147.0253  156.2516 H       1  UNL1        0.1825
     35 H         141.4086  147.9427  155.3150 H       1  UNL1        0.2414
@<TRIPOS>BOND
     1    16    17    1
     2    17    18    1
     3    17    19    1
     4    17     7    1
     5     7     8    2
     6     8     9    1
     7     9    10    2
     8    10    11    1
     9    11    12    2
    10    12    13    1
    11    13    14    1
    12    14    15    2
    13    15     1    1
    14     1     2    1
    15     2     3    1
    16     3     4    1
    17     4     5    1
    18     5    20    1
    19    20    21    1
    20    21    22   ar
    21    22    23   ar
    22    23    24   ar
    23    24    28    1
    24    28    29    2
    25    29    30    1
    26    30    31    2
    27    30    32   am
    28    32    33    1
    29    24    25   ar
    30    25    26   ar
    31    26    27    1
    32     5     6    1
    33    15     7    1
    34     6     1    1
    35    14     9    1
    36    26    21   ar
    37    32    34    1
    38    33    35    1
@<TRIPOS>MOLECULE
*****
 35 38 0 0 0
SMALL
GASTEIGER

@<TRIPOS>ATOM
      1 C         139.0007  141.2529  161.4401 C.3     1  UNL1        0.0393
      2 C         137.7709  140.6481  160.8304 C.3     1  UNL1        0.0072
      3 C         137.3855  139.2370  161.1624 C.3     1  UNL1        0.0177
      4 C         138.2298  138.4306  162.1042 C.3     1  UNL1        0.0724
      5 N         139.4596  139.0354  162.7139 N.3     1  UNL1       -0.2686
      6 C         139.8451  140.4465  162.3819 C.3     1  UNL1        0.0767
      7 C         139.4276  143.8158  162.0681 C.2     1  UNL1        0.0540
      8 N         139.8649  145.0346  161.3111 N.2     1  UNL1       -0.2503
      9 C         140.0938  144.6361  159.8832 C.2     1  UNL1        0.0770
     10 C         140.5334  145.4181  158.6811 C.2     1  UNL1        0.0184
     11 C         140.6771  144.7350  157.3535 C.2     1  UNL1       -0.0027
     12 C         140.3812  143.2698  157.2280 C.2     1  UNL1       -0.0213
     13 C         139.9416  142.4878  158.4302 C.3     1  UNL1        0.0535
     14 C         139.7979  143.1710  159.7578 C.2     1  UNL1       -0.0030
     15 C         139.3862  142.6640  161.1081 C.2     1  UNL1       -0.0098
     16 C         137.6342  143.8967  163.1983 C.3     1  UNL1        0.0059
     17 C         139.0908  143.7587  163.5287 C.3     1  UNL1        0.0352
     18 C         140.5474  143.6207  163.8592 C.3     1  UNL1        0.0059
     19 C         138.7540  143.7016  164.9893 C.3     1  UNL1        0.0059
     20 C         140.3040  138.2291  163.6556 C.3     1  UNL1        0.1014
     21 C         140.7477  138.8222  164.9600 C.ar    1  UNL1        0.0213
     22 C         142.2093  138.9076  165.2865 C.ar    1  UNL1       -0.0007
     23 C         142.6529  139.5007  166.5909 C.ar    1  UNL1       -0.0001
     24 C         141.6350  140.0084  167.5688 C.ar    1  UNL1        0.0024
     25 C         140.1735  139.9229  167.2423 C.ar    1  UNL1        0.0294
     26 C         139.7298  139.3299  165.9379 C.ar    1  UNL1        0.1374
     27 F         138.2683  139.2445  165.6114 F       1  UNL1       -0.2045
     28 C         142.0787  140.6014  168.8732 C.2     1  UNL1        0.0048
     29 C         141.6986  142.0092  169.2248 C.2     1  UNL1        0.0598
     30 C         142.1423  142.6023  170.5292 C.2     1  UNL1        0.2679
     31 O         141.5098  142.1507  171.8121 O.2     1  UNL1       -0.2681
     32 N         143.2184  143.6471  170.5507 N.am    1  UNL1       -0.1934
     33 O         143.6620  144.2402  171.8551 O.3     1  UNL1       -0.2949
     34 H         143.6335  143.9435  169.7087 H       1  UNL1        0.1825
     35 H         143.1562  143.8413  172.5803 H       1  UNL1        0.2414
@<TRIPOS>BOND
     1    16    17    1
     2    17    18    1
     3    17    19    1
     4    17     7    1
     5     7     8    2
     6     8     9    1
     7     9    10    2
     8    10    11    1
     9    11    12    2
    10    12    13    1
    11    13    14    1
    12    14    15    2
    13    15     1    1
    14     1     2    1
    15     2     3    1
    16     3     4    1
    17     4     5    1
    18     5    20    1
    19    20    21    1
    20    21    22   ar
    21    22    23   ar
    22    23    24   ar
    23    24    28    1
    24    28    29    2
    25    29    30    1
    26    30    31    2
    27    30    32   am
    28    32    33    1
    29    24    25   ar
    30    25    26   ar
    31    26    27    1
    32     5     6    1
    33    15     7    1
    34     6     1    1
    35    14     9    1
    36    26    21   ar
    37    32    34    1
    38    33    35    1
@<TRIPOS>MOLECULE
*****
 35 38 0 0 0
SMALL
GASTEIGER

@<TRIPOS>ATOM
      1 C         141.2693  141.9752  163.5682 C.3     1  UNL1        0.0393
      2 C         142.6436  141.7212  163.0237 C.3     1  UNL1        0.0072
      3 C         143.8418  141.8651  163.9145 C.3     1  UNL1        0.0177
      4 C         143.6657  142.2632  165.3499 C.3     1  UNL1        0.0724
      5 N         142.2913  142.5173  165.8945 N.3     1  UNL1       -0.2686
      6 C         141.0931  142.3734  165.0037 C.3     1  UNL1        0.0767
      7 C         139.3858  142.9402  161.9352 C.2     1  UNL1        0.0540
      8 N         138.2390  142.3473  161.1715 N.2     1  UNL1       -0.2503
      9 C         138.2155  140.8720  161.4415 C.2     1  UNL1        0.0770
     10 C         137.3094  139.7778  160.9602 C.2     1  UNL1        0.0184
     11 C         137.5355  138.3647  161.4096 C.2     1  UNL1       -0.0027
     12 C         138.6678  138.0458  162.3403 C.2     1  UNL1       -0.0213
     13 C         139.5740  139.1400  162.8216 C.3     1  UNL1        0.0535
     14 C         139.3478  140.5530  162.3722 C.2     1  UNL1       -0.0030
     15 C         140.0711  141.8312  162.6773 C.2     1  UNL1       -0.0098
     16 C         140.7523  144.1378  160.8405 C.3     1  UNL1        0.0059
     17 C         139.7784  144.3877  161.9536 C.3     1  UNL1        0.0352
     18 C         138.8045  144.6377  163.0667 C.3     1  UNL1        0.0059
     19 C         140.1710  145.8353  161.9720 C.3     1  UNL1        0.0059
     20 C         142.1151  142.9154  167.3299 C.3     1  UNL1        0.1014
     21 C         141.2149  142.1161  168.2247 C.ar    1  UNL1        0.0213
     22 C         141.0143  140.6513  167.9717 C.ar    1  UNL1       -0.0007
     23 C         140.1141  139.8520  168.8666 C.ar    1  UNL1       -0.0001
     24 C         139.4145  140.5174  170.0145 C.ar    1  UNL1        0.0024
     25 C         139.6151  141.9823  170.2676 C.ar    1  UNL1        0.0294
     26 C         140.5153  142.7816  169.3727 C.ar    1  UNL1        0.1374
     27 F         140.7159  144.2464  169.6258 F       1  UNL1       -0.2045
     28 C         138.5143  139.7181  170.9093 C.2     1  UNL1        0.0048
     29 C         137.2321  139.1542  170.3728 C.2     1  UNL1        0.0598
     30 C         136.3318  138.3548  171.2676 C.2     1  UNL1        0.2679
     31 O         136.4446  136.8595  171.3023 O.2     1  UNL1       -0.2681
     32 N         135.3189  139.0507  172.1276 N.am    1  UNL1       -0.1934
     33 O         134.4187  138.2513  173.0223 O.3     1  UNL1       -0.2949
     34 H         135.2449  140.0322  172.1048 H       1  UNL1        0.1825
     35 H         134.6209  137.3077  172.9246 H       1  UNL1        0.2414
@<TRIPOS>BOND
     1    16    17    1
     2    17    18    1
     3    17    19    1
     4    17     7    1
     5     7     8    2
     6     8     9    1
     7     9    10    2
     8    10    11    1
     9    11    12    2
    10    12    13    1
    11    13    14    1
    12    14    15    2
    13    15     1    1
    14     1     2    1
    15     2     3    1
    16     3     4    1
    17     4     5    1
    18     5    20    1
    19    20    21    1
    20    21    22   ar
    21    22    23   ar
    22    23    24   ar
    23    24    28    1
    24    28    29    2
    25    29    30    1
    26    30    31    2
    27    30    32   am
    28    32    33    1
    29    24    25   ar
    30    25    26   ar
    31    26    27    1
    32     5     6    1
    33    15     7    1
    34     6     1    1
    35    14     9    1
    36    26    21   ar
    37    32    34    1
    38    33    35    1
@<TRIPOS>MOLECULE
*****
 35 38 0 0 0
SMALL
GASTEIGER

@<TRIPOS>ATOM
      1 C         140.1338  139.1344  158.7489 C.3     1  UNL1        0.0393
      2 C         139.7676  140.5123  158.2829 C.3     1  UNL1        0.0072
      3 C         138.7486  141.3133  159.0379 C.3     1  UNL1        0.0177
      4 C         138.0957  140.7364  160.2589 C.3     1  UNL1        0.0724
      5 N         138.4618  139.3585  160.7250 N.3     1  UNL1       -0.2686
      6 C         139.4809  138.5575  159.9700 C.3     1  UNL1        0.0767
      7 C         142.5971  138.1704  158.3646 C.2     1  UNL1        0.0540
      8 N         143.2433  137.2910  157.3355 N.2     1  UNL1       -0.2503
      9 C         142.1984  136.9104  156.3289 C.2     1  UNL1        0.0770
     10 C         142.2565  136.0605  155.0943 C.2     1  UNL1        0.0184
     11 C         141.0225  135.8548  154.2667 C.2     1  UNL1       -0.0027
     12 C         139.7305  136.4990  154.6737 C.2     1  UNL1       -0.0213
     13 C         139.6724  137.3489  155.9082 C.3     1  UNL1        0.0535
     14 C         140.9064  137.5546  156.7359 C.2     1  UNL1       -0.0030
     15 C         141.1528  138.3334  157.9940 C.2     1  UNL1       -0.0098
     16 C         142.9912  137.5412  160.3518 C.3     1  UNL1        0.0059
     17 C         143.2760  138.7799  159.5552 C.3     1  UNL1        0.0352
     18 C         143.5609  140.0186  158.7587 C.3     1  UNL1        0.0059
     19 C         143.9550  139.3894  160.7459 C.3     1  UNL1        0.0059
     20 C         137.8090  138.7815  161.9460 C.3     1  UNL1        0.1014
     21 C         138.3986  139.0343  163.3019 C.ar    1  UNL1        0.0213
     22 C         139.3265  138.0282  163.9156 C.ar    1  UNL1       -0.0007
     23 C         139.9161  138.2810  165.2716 C.ar    1  UNL1       -0.0001
     24 C         139.5778  139.5399  166.0138 C.ar    1  UNL1        0.0024
     25 C         138.6498  140.5460  165.4000 C.ar    1  UNL1        0.0294
     26 C         138.0602  140.2932  164.0441 C.ar    1  UNL1        0.1374
     27 F         137.1323  141.2993  163.4303 F       1  UNL1       -0.2045
     28 C         140.1674  139.7926  167.3697 C.2     1  UNL1        0.0048
     29 C         139.2820  140.2087  168.5067 C.2     1  UNL1        0.0598
     30 C         139.8715  140.4614  169.8627 C.2     1  UNL1        0.2679
     31 O         140.6470  139.3811  170.5565 O.2     1  UNL1       -0.2681
     32 N         139.6855  141.7945  170.5248 N.am    1  UNL1       -0.1934
     33 O         140.2750  142.0471  171.8808 O.3     1  UNL1       -0.2949
     34 H         139.1765  142.5035  170.0694 H       1  UNL1        0.1825
     35 H         140.7406  141.2521  172.1842 H       1  UNL1        0.2414
@<TRIPOS>BOND
     1    16    17    1
     2    17    18    1
     3    17    19    1
     4    17     7    1
     5     7     8    2
     6     8     9    1
     7     9    10    2
     8    10    11    1
     9    11    12    2
    10    12    13    1
    11    13    14    1
    12    14    15    2
    13    15     1    1
    14     1     2    1
    15     2     3    1
    16     3     4    1
    17     4     5    1
    18     5    20    1
    19    20    21    1
    20    21    22   ar
    21    22    23   ar
    22    23    24   ar
    23    24    28    1
    24    28    29    2
    25    29    30    1
    26    30    31    2
    27    30    32   am
    28    32    33    1
    29    24    25   ar
    30    25    26   ar
    31    26    27    1
    32     5     6    1
    33    15     7    1
    34     6     1    1
    35    14     9    1
    36    26    21   ar
    37    32    34    1
    38    33    35    1
@<TRIPOS>MOLECULE
*****
 35 38 0 0 0
SMALL
GASTEIGER

@<TRIPOS>ATOM
      1 C         139.3095  142.6459  159.9824 C.3     1  UNL1        0.0393
      2 C         139.0749  141.3788  159.2148 C.3     1  UNL1        0.0072
      3 C         138.2844  140.2634  159.8321 C.3     1  UNL1        0.0177
      4 C         137.7285  140.4151  161.2170 C.3     1  UNL1        0.0724
      5 N         137.9631  141.6822  161.9846 N.3     1  UNL1       -0.2686
      6 C         138.7536  142.7977  161.3674 C.3     1  UNL1        0.0767
      7 C         141.1688  144.5653  160.0442 C.2     1  UNL1        0.0540
      8 N         141.6898  145.5694  159.0591 N.2     1  UNL1       -0.2503
      9 C         140.9429  145.3860  157.7713 C.2     1  UNL1        0.0770
     10 C         141.0306  146.0922  156.4509 C.2     1  UNL1        0.0184
     11 C         140.1356  145.6809  155.3195 C.2     1  UNL1       -0.0027
     12 C         139.1531  144.5634  155.5087 C.2     1  UNL1       -0.0213
     13 C         139.0654  143.8572  156.8291 C.3     1  UNL1        0.0535
     14 C         139.9603  144.2685  157.9604 C.2     1  UNL1       -0.0030
     15 C         140.1000  143.7613  159.3651 C.2     1  UNL1       -0.0098
     16 C         142.5332  143.2736  161.0291 C.3     1  UNL1        0.0059
     17 C         141.6349  144.3950  161.4597 C.3     1  UNL1        0.0352
     18 C         140.7366  145.5165  161.8904 C.3     1  UNL1        0.0059
     19 C         142.1010  144.2248  162.8753 C.3     1  UNL1        0.0059
     20 C         137.4073  141.8341  163.3695 C.3     1  UNL1        0.1014
     21 C         138.3197  141.7502  164.5572 C.ar    1  UNL1        0.0213
     22 C         138.4965  140.4458  165.2765 C.ar    1  UNL1       -0.0007
     23 C         139.4090  140.3620  166.4641 C.ar    1  UNL1       -0.0001
     24 C         140.1446  141.5825  166.9324 C.ar    1  UNL1        0.0024
     25 C         139.9678  142.8868  166.2131 C.ar    1  UNL1        0.0294
     26 C         139.0554  142.9707  165.0255 C.ar    1  UNL1        0.1374
     27 F         138.8786  144.2750  164.3062 F       1  UNL1       -0.2045
     28 C         141.0570  141.4986  168.1201 C.2     1  UNL1        0.0048
     29 C         140.8353  140.4436  169.1631 C.2     1  UNL1        0.0598
     30 C         141.7477  140.3597  170.3507 C.2     1  UNL1        0.2679
     31 O         141.3733  141.0407  171.6337 O.2     1  UNL1       -0.2681
     32 N         143.0344  139.5947  170.2555 N.am    1  UNL1       -0.1934
     33 O         143.9468  139.5108  171.4432 O.3     1  UNL1       -0.2949
     34 H         143.2802  139.1477  169.4135 H       1  UNL1        0.1825
     35 H         143.5587  140.0017  172.1844 H       1  UNL1        0.2414
@<TRIPOS>BOND
     1    16    17    1
     2    17    18    1
     3    17    19    1
     4    17     7    1
     5     7     8    2
     6     8     9    1
     7     9    10    2
     8    10    11    1
     9    11    12    2
    10    12    13    1
    11    13    14    1
    12    14    15    2
    13    15     1    1
    14     1     2    1
    15     2     3    1
    16     3     4    1
    17     4     5    1
    18     5    20    1
    19    20    21    1
    20    21    22   ar
    21    22    23   ar
    22    23    24   ar
    23    24    28    1
    24    28    29    2
    25    29    30    1
    26    30    31    2
    27    30    32   am
    28    32    33    1
    29    24    25   ar
    30    25    26   ar
    31    26    27    1
    32     5     6    1
    33    15     7    1
    34     6     1    1
    35    14     9    1
    36    26    21   ar
    37    32    34    1
    38    33    35    1
