@<TRIPOS>MOLECULE
*****
 27 29 0 0 0
SMALL
GASTEIGER

@<TRIPOS>ATOM
      1 C         141.8463  138.9506  163.7537 C.ar    1  UNL1        0.1099
      2 C         142.0416  140.4340  163.6471 C.ar    1  UNL1        0.0337
      3 C         141.8697  141.0237  165.0155 C.ar    1  UNL1        0.0621
      4 C         141.9800  142.4772  165.3694 C.3     1  UNL1        0.0522
      5 N         141.5682  139.9048  165.9679 N.ar    1  UNL1       -0.2338
      6 N         141.5537  138.6236  165.1881 N.ar    1  UNL1       -0.1673
      7 C         141.3240  140.0429  167.4414 C.ar    1  UNL1        0.0848
      8 C         139.9563  140.3972  167.9450 C.ar    1  UNL1        0.0216
      9 C         139.7121  140.5353  169.4186 C.ar    1  UNL1        0.0335
     10 C         140.8357  140.3190  170.3885 C.ar    1  UNL1        0.1675
     11 F         140.5915  140.4570  171.8621 F       1  UNL1       -0.2018
     12 C         142.2034  139.9646  169.8848 C.ar    1  UNL1        0.1689
     13 F         143.3271  139.7483  170.8548 F       1  UNL1       -0.2017
     14 C         142.4476  139.8266  168.4113 C.ar    1  UNL1        0.0511
     15 C         141.9290  137.9669  162.6243 C.3     1  UNL1        0.1893
     16 O         140.6735  137.4446  161.9911 O.3     1  UNL1       -0.3458
     17 C         139.3903  137.4335  162.7679 C.3     1  UNL1        0.1600
     18 C         138.2357  138.2803  162.3211 C.3     1  UNL1        0.1047
     19 C         138.2944  144.6202  164.9767 C.3     1  UNL1        0.0948
     20 C         138.1655  144.1511  163.5578 C.2     1  UNL1        0.2262
     21 O         138.0189  145.1496  162.4481 O.2     1  UNL1       -0.2749
     22 N         138.1830  142.6834  163.2486 N.am    1  UNL1       -0.2767
     23 C         138.3295  141.6848  164.3583 C.3     1  UNL1        0.1107
     24 C         138.3471  140.2172  164.0491 C.3     1  UNL1        0.0940
     25 N         138.2182  139.7480  162.6303 N.3     1  UNL1       -0.2676
     26 C         138.0716  140.7465  161.5206 C.3     1  UNL1        0.0940
     27 C         138.0541  142.2142  161.8298 C.3     1  UNL1        0.1107
@<TRIPOS>BOND
     1    19    20    1
     2    20    21    2
     3    20    22   am
     4    22    23    1
     5    23    24    1
     6    24    25    1
     7    25    18    1
     8    18    17    1
     9    17    16    1
    10    16    15    1
    11    15     1    1
    12     1     2   ar
    13     2     3   ar
    14     3     4    1
    15     3     5   ar
    16     5     7    1
    17     7     8   ar
    18     8     9   ar
    19     9    10   ar
    20    10    11    1
    21    10    12   ar
    22    12    13    1
    23    12    14   ar
    24     5     6   ar
    25    25    26    1
    26    26    27    1
    27    27    22    1
    28     6     1   ar
    29    14     7   ar
@<TRIPOS>MOLECULE
*****
 27 29 0 0 0
SMALL
GASTEIGER

@<TRIPOS>ATOM
      1 C         141.6623  143.3206  163.2699 C.ar    1  UNL1        0.1099
      2 C         141.8357  141.8357  163.1483 C.ar    1  UNL1        0.0337
      3 C         141.9310  141.2652  164.5324 C.ar    1  UNL1        0.0621
      4 C         142.1095  139.8167  164.8786 C.3     1  UNL1        0.0522
      5 N         141.8166  142.3977  165.5093 N.ar    1  UNL1       -0.2338
      6 N         141.6506  143.6680  164.7291 N.ar    1  UNL1       -0.1673
      7 C         141.8606  142.2805  167.0041 C.ar    1  UNL1        0.0848
      8 C         140.5920  142.0764  167.7780 C.ar    1  UNL1        0.0216
      9 C         140.6360  141.9591  169.2727 C.ar    1  UNL1        0.0335
     10 C         141.9485  142.0461  169.9936 C.ar    1  UNL1        0.1675
     11 F         141.9925  141.9288  171.4884 F       1  UNL1       -0.2018
     12 C         143.2171  142.2502  169.2196 C.ar    1  UNL1        0.1689
     13 F         144.5298  142.3371  169.9405 F       1  UNL1       -0.2017
     14 C         143.1732  142.3674  167.7249 C.ar    1  UNL1        0.0511
     15 C         141.5249  144.2883  162.1321 C.3     1  UNL1        0.1893
     16 O         140.1629  144.6710  161.6333 O.3     1  UNL1       -0.3458
     17 C         139.1195  145.1534  162.5969 C.3     1  UNL1        0.1600
     18 C         137.9266  144.2966  162.9016 C.3     1  UNL1        0.1047
     19 C         138.7528  137.9867  165.5001 C.3     1  UNL1        0.0948
     20 C         138.6487  138.4579  164.0799 C.2     1  UNL1        0.2262
     21 O         138.7250  137.4695  162.9542 O.2     1  UNL1       -0.2749
     22 N         138.4682  139.9176  163.7853 N.am    1  UNL1       -0.2767
     23 C         138.3918  140.9060  164.9109 C.3     1  UNL1        0.1107
     24 C         138.2113  142.3657  164.6164 C.3     1  UNL1        0.0940
     25 N         138.1071  142.8369  163.1961 N.3     1  UNL1       -0.2676
     26 C         138.1835  141.8485  162.0705 C.3     1  UNL1        0.0940
     27 C         138.3640  140.3888  162.3651 C.3     1  UNL1        0.1107
@<TRIPOS>BOND
     1    19    20    1
     2    20    21    2
     3    20    22   am
     4    22    23    1
     5    23    24    1
     6    24    25    1
     7    25    18    1
     8    18    17    1
     9    17    16    1
    10    16    15    1
    11    15     1    1
    12     1     2   ar
    13     2     3   ar
    14     3     4    1
    15     3     5   ar
    16     5     7    1
    17     7     8   ar
    18     8     9   ar
    19     9    10   ar
    20    10    11    1
    21    10    12   ar
    22    12    13    1
    23    12    14   ar
    24     5     6   ar
    25    25    26    1
    26    26    27    1
    27    27    22    1
    28     6     1   ar
    29    14     7   ar
@<TRIPOS>MOLECULE
*****
 27 29 0 0 0
SMALL
GASTEIGER

@<TRIPOS>ATOM
      1 C         138.2599  141.7181  164.2811 C.ar    1  UNL1        0.1099
      2 C         137.9385  140.2625  164.1138 C.ar    1  UNL1        0.0337
      3 C         138.6894  139.4983  165.1637 C.ar    1  UNL1        0.0621
      4 C         138.6600  138.0119  165.3624 C.3     1  UNL1        0.0522
      5 N         139.4748  140.4817  165.9799 N.ar    1  UNL1       -0.2338
      6 N         139.2093  141.8535  165.4344 N.ar    1  UNL1       -0.1673
      7 C         140.3688  140.1512  167.1382 C.ar    1  UNL1        0.0848
      8 C         141.8038  139.7870  166.8979 C.ar    1  UNL1        0.0216
      9 C         142.6978  139.4565  168.0562 C.ar    1  UNL1        0.0335
     10 C         142.1566  139.4903  169.4547 C.ar    1  UNL1        0.1675
     11 F         143.0505  139.1598  170.6131 F       1  UNL1       -0.2018
     12 C         140.7214  139.8545  169.6950 C.ar    1  UNL1        0.1689
     13 F         140.1802  139.8882  171.0936 F       1  UNL1       -0.2017
     14 C         139.8275  140.1850  168.5367 C.ar    1  UNL1        0.0511
     15 C         137.7255  142.8411  163.4424 C.3     1  UNL1        0.1893
     16 O         137.5746  142.6643  161.9605 O.3     1  UNL1       -0.3458
     17 C         138.7653  142.8196  161.0615 C.3     1  UNL1        0.1600
     18 C         139.5966  141.6232  160.7044 C.3     1  UNL1        0.1047
     19 C         145.0524  139.5938  164.3604 C.3     1  UNL1        0.0948
     20 C         144.8835  140.7316  163.3977 C.2     1  UNL1        0.2262
     21 O         146.0364  141.6465  163.1083 O.2     1  UNL1       -0.2749
     22 N         143.5618  140.9545  162.7244 N.am    1  UNL1       -0.2767
     23 C         142.4089  140.0396  163.0137 C.3     1  UNL1        0.1107
     24 C         141.0872  140.2625  162.3404 C.3     1  UNL1        0.0940
     25 N         140.9184  141.4003  161.3777 N.3     1  UNL1       -0.2676
     26 C         142.0712  142.3152  161.0884 C.3     1  UNL1        0.0940
     27 C         143.3929  142.0923  161.7617 C.3     1  UNL1        0.1107
@<TRIPOS>BOND
     1    19    20    1
     2    20    21    2
     3    20    22   am
     4    22    23    1
     5    23    24    1
     6    24    25    1
     7    25    18    1
     8    18    17    1
     9    17    16    1
    10    16    15    1
    11    15     1    1
    12     1     2   ar
    13     2     3   ar
    14     3     4    1
    15     3     5   ar
    16     5     7    1
    17     7     8   ar
    18     8     9   ar
    19     9    10   ar
    20    10    11    1
    21    10    12   ar
    22    12    13    1
    23    12    14   ar
    24     5     6   ar
    25    25    26    1
    26    26    27    1
    27    27    22    1
    28     6     1   ar
    29    14     7   ar
@<TRIPOS>MOLECULE
*****
 27 29 0 0 0
SMALL
GASTEIGER

@<TRIPOS>ATOM
      1 C         142.1942  140.4307  164.1472 C.ar    1  UNL1        0.1099
      2 C         140.7488  140.4437  163.7462 C.ar    1  UNL1        0.0337
      3 C         139.9381  140.8329  164.9468 C.ar    1  UNL1        0.0621
      4 C         138.4453  140.9704  164.9957 C.3     1  UNL1        0.0522
      5 N         140.8825  141.0604  166.0898 N.ar    1  UNL1       -0.2338
      6 N         142.2768  140.8118  165.5956 N.ar    1  UNL1       -0.1673
      7 C         140.4998  141.4653  167.4825 C.ar    1  UNL1        0.0848
      8 C         139.8386  140.4765  168.3961 C.ar    1  UNL1        0.0216
      9 C         139.4559  140.8814  169.7887 C.ar    1  UNL1        0.0335
     10 C         139.7344  142.2753  170.2677 C.ar    1  UNL1        0.1675
     11 F         139.3517  142.6804  171.6605 F       1  UNL1       -0.2018
     12 C         140.3957  143.2643  169.3540 C.ar    1  UNL1        0.1689
     13 F         140.6742  144.6582  169.8331 F       1  UNL1       -0.2017
     14 C         140.7784  142.8593  167.9614 C.ar    1  UNL1        0.0511
     15 C         143.3534  140.0954  163.2562 C.3     1  UNL1        0.1893
     16 O         144.5972  140.9329  163.2967 O.3     1  UNL1       -0.3458
     17 C         144.9508  141.8075  162.1305 C.3     1  UNL1        0.1600
     18 C         144.4364  143.2151  162.0656 C.3     1  UNL1        0.1047
     19 C         138.5551  144.8934  165.2030 C.3     1  UNL1        0.0948
     20 C         138.8245  144.4413  163.7983 C.2     1  UNL1        0.2262
     21 O         137.6909  144.2957  162.8269 O.2     1  UNL1       -0.2749
     22 N         140.2274  144.1347  163.3652 N.am    1  UNL1       -0.2767
     23 C         141.3610  144.2803  164.3366 C.3     1  UNL1        0.1107
     24 C         142.7640  143.9737  163.9034 C.3     1  UNL1        0.0940
     25 N         143.0334  143.5216  162.4988 N.3     1  UNL1       -0.2676
     26 C         141.8998  143.3761  161.5274 C.3     1  UNL1        0.0940
     27 C         140.4968  143.6826  161.9605 C.3     1  UNL1        0.1107
@<TRIPOS>BOND
     1    19    20    1
     2    20    21    2
     3    20    22   am
     4    22    23    1
     5    23    24    1
     6    24    25    1
     7    25    18    1
     8    18    17    1
     9    17    16    1
    10    16    15    1
    11    15     1    1
    12     1     2   ar
    13     2     3   ar
    14     3     4    1
    15     3     5   ar
    16     5     7    1
    17     7     8   ar
    18     8     9   ar
    19     9    10   ar
    20    10    11    1
    21    10    12   ar
    22    12    13    1
    23    12    14   ar
    24     5     6   ar
    25    25    26    1
    26    26    27    1
    27    27    22    1
    28     6     1   ar
    29    14     7   ar
@<TRIPOS>MOLECULE
*****
 27 29 0 0 0
SMALL
GASTEIGER

@<TRIPOS>ATOM
      1 C         141.5820  144.0233  162.2003 C.ar    1  UNL1        0.1099
      2 C         142.5906  144.7859  163.0072 C.ar    1  UNL1        0.0337
      3 C         143.2240  143.8334  163.9775 C.ar    1  UNL1        0.0621
      4 C         144.2878  144.1727  164.9791 C.3     1  UNL1        0.0522
      5 N         142.6068  142.4821  163.7704 N.ar    1  UNL1       -0.2338
      6 N         141.5920  142.5994  162.6720 N.ar    1  UNL1       -0.1673
      7 C         142.9451  141.2327  164.5284 C.ar    1  UNL1        0.0848
      8 C         144.0081  140.3079  164.0140 C.ar    1  UNL1        0.0216
      9 C         144.3463  139.0586  164.7721 C.ar    1  UNL1        0.0335
     10 C         143.6215  138.7340  166.0446 C.ar    1  UNL1        0.1675
     11 F         143.9597  137.4846  166.8027 F       1  UNL1       -0.2018
     12 C         142.5584  139.6589  166.5590 C.ar    1  UNL1        0.1689
     13 F         141.8336  139.3343  167.8316 F       1  UNL1       -0.2017
     14 C         142.2202  140.9082  165.8010 C.ar    1  UNL1        0.0511
     15 C         140.7154  144.5858  161.1128 C.3     1  UNL1        0.1893
     16 O         139.3221  145.0448  161.4259 O.3     1  UNL1       -0.3458
     17 C         138.8737  145.1614  162.8526 C.3     1  UNL1        0.1600
     18 C         137.7879  144.2669  163.3729 C.3     1  UNL1        0.1047
     19 C         139.1589  137.7668  165.1389 C.3     1  UNL1        0.0948
     20 C         138.7291  138.3588  163.8294 C.2     1  UNL1        0.2262
     21 O         138.5346  137.4738  162.6341 O.2     1  UNL1       -0.2749
     22 N         138.4938  139.8358  163.7153 N.am    1  UNL1       -0.2767
     23 C         138.6883  140.7208  164.9106 C.3     1  UNL1        0.1107
     24 C         138.4530  142.1979  164.7965 C.3     1  UNL1        0.0940
     25 N         138.0232  142.7899  163.4871 N.3     1  UNL1       -0.2676
     26 C         137.8287  141.9049  162.2917 C.3     1  UNL1        0.0940
     27 C         138.0640  140.4279  162.4058 C.3     1  UNL1        0.1107
@<TRIPOS>BOND
     1    19    20    1
     2    20    21    2
     3    20    22   am
     4    22    23    1
     5    23    24    1
     6    24    25    1
     7    25    18    1
     8    18    17    1
     9    17    16    1
    10    16    15    1
    11    15     1    1
    12     1     2   ar
    13     2     3   ar
    14     3     4    1
    15     3     5   ar
    16     5     7    1
    17     7     8   ar
    18     8     9   ar
    19     9    10   ar
    20    10    11    1
    21    10    12   ar
    22    12    13    1
    23    12    14   ar
    24     5     6   ar
    25    25    26    1
    26    26    27    1
    27    27    22    1
    28     6     1   ar
    29    14     7   ar
@<TRIPOS>MOLECULE
*****
 27 29 0 0 0
SMALL
GASTEIGER

@<TRIPOS>ATOM
      1 C         138.5661  141.2402  163.7285 C.ar    1  UNL1        0.1099
      2 C         139.9609  141.6027  163.3125 C.ar    1  UNL1        0.0337
      3 C         140.7888  141.7596  164.5535 C.ar    1  UNL1        0.0621
      4 C         142.2443  142.1188  164.6029 C.3     1  UNL1        0.0522
      5 N         139.9055  141.4941  165.7365 N.ar    1  UNL1       -0.2338
      6 N         138.5318  141.1732  165.2266 N.ar    1  UNL1       -0.1673
      7 C         140.3227  141.5413  167.1766 C.ar    1  UNL1        0.0848
      8 C         140.4970  142.8631  167.8639 C.ar    1  UNL1        0.0216
      9 C         140.9141  142.9103  169.3040 C.ar    1  UNL1        0.0335
     10 C         141.1570  141.6357  170.0566 C.ar    1  UNL1        0.1675
     11 F         141.5742  141.6829  171.4967 F       1  UNL1       -0.2018
     12 C         140.9827  140.3139  169.3692 C.ar    1  UNL1        0.1689
     13 F         141.2256  139.0393  170.1219 F       1  UNL1       -0.2017
     14 C         140.5655  140.2667  167.9291 C.ar    1  UNL1        0.0511
     15 C         137.4087  140.9890  162.8080 C.3     1  UNL1        0.1893
     16 O         137.5897  140.1277  161.5932 O.3     1  UNL1       -0.3458
     17 C         137.7635  138.6455  161.7440 C.3     1  UNL1        0.1600
     18 C         139.0856  138.0097  161.4314 C.3     1  UNL1        0.1047
     19 C         143.5535  138.3933  166.6411 C.3     1  UNL1        0.0948
     20 C         143.7142  138.7119  165.1842 C.2     1  UNL1        0.2262
     21 O         145.0320  139.2061  164.6654 O.2     1  UNL1       -0.2749
     22 N         142.5570  138.5364  164.2460 N.am    1  UNL1       -0.2767
     23 C         141.2392  138.0422  164.7647 C.3     1  UNL1        0.1107
     24 C         140.0821  137.8666  163.8265 C.3     1  UNL1        0.0940
     25 N         140.2428  138.1853  162.3696 N.3     1  UNL1       -0.2676
     26 C         141.5606  138.6794  161.8509 C.3     1  UNL1        0.0940
     27 C         142.7177  138.8550  162.7891 C.3     1  UNL1        0.1107
@<TRIPOS>BOND
     1    19    20    1
     2    20    21    2
     3    20    22   am
     4    22    23    1
     5    23    24    1
     6    24    25    1
     7    25    18    1
     8    18    17    1
     9    17    16    1
    10    16    15    1
    11    15     1    1
    12     1     2   ar
    13     2     3   ar
    14     3     4    1
    15     3     5   ar
    16     5     7    1
    17     7     8   ar
    18     8     9   ar
    19     9    10   ar
    20    10    11    1
    21    10    12   ar
    22    12    13    1
    23    12    14   ar
    24     5     6   ar
    25    25    26    1
    26    26    27    1
    27    27    22    1
    28     6     1   ar
    29    14     7   ar
@<TRIPOS>MOLECULE
*****
 27 29 0 0 0
SMALL
GASTEIGER

@<TRIPOS>ATOM
      1 C         140.0445  144.4715  163.2461 C.ar    1  UNL1        0.1099
      2 C         141.3028  144.3002  164.0444 C.ar    1  UNL1        0.0337
      3 C         141.2533  142.9543  164.7048 C.ar    1  UNL1        0.0621
      4 C         142.3076  142.3713  165.5984 C.3     1  UNL1        0.0522
      5 N         139.9643  142.2937  164.3146 N.ar    1  UNL1       -0.2338
      6 N         139.2173  143.2314  163.4131 N.ar    1  UNL1       -0.1673
      7 C         139.5033  140.9342  164.7496 C.ar    1  UNL1        0.0848
      8 C         139.2247  140.6648  166.1985 C.ar    1  UNL1        0.0216
      9 C         138.7637  139.3053  166.6335 C.ar    1  UNL1        0.0335
     10 C         138.5813  138.2152  165.6193 C.ar    1  UNL1        0.1675
     11 F         138.1203  136.8556  166.0543 F       1  UNL1       -0.2018
     12 C         138.8599  138.4847  164.1703 C.ar    1  UNL1        0.1689
     13 F         138.6775  137.3945  163.1561 F       1  UNL1       -0.2017
     14 C         139.3209  139.8442  163.7353 C.ar    1  UNL1        0.0511
     15 C         139.6779  145.6720  162.4250 C.3     1  UNL1        0.1893
     16 O         139.3658  145.5159  160.9660 O.3     1  UNL1       -0.3458
     17 C         140.4376  145.0773  160.0126 C.3     1  UNL1        0.1600
     18 C         140.7007  143.6159  159.8008 C.3     1  UNL1        0.1047
     19 C         144.6002  139.4340  163.6161 C.3     1  UNL1        0.0948
     20 C         144.8664  140.8109  163.0840 C.2     1  UNL1        0.2262
     21 O         146.1741  141.4867  163.3727 O.2     1  UNL1       -0.2749
     22 N         143.8250  141.5122  162.2632 N.am    1  UNL1       -0.2767
     23 C         142.5173  140.8365  161.9745 C.3     1  UNL1        0.1107
     24 C         141.4759  141.5377  161.1537 C.3     1  UNL1        0.0940
     25 N         141.7421  142.9146  160.6216 N.3     1  UNL1       -0.2676
     26 C         143.0498  143.5903  160.9104 C.3     1  UNL1        0.0940
     27 C         144.0912  142.8891  161.7311 C.3     1  UNL1        0.1107
@<TRIPOS>BOND
     1    19    20    1
     2    20    21    2
     3    20    22   am
     4    22    23    1
     5    23    24    1
     6    24    25    1
     7    25    18    1
     8    18    17    1
     9    17    16    1
    10    16    15    1
    11    15     1    1
    12     1     2   ar
    13     2     3   ar
    14     3     4    1
    15     3     5   ar
    16     5     7    1
    17     7     8   ar
    18     8     9   ar
    19     9    10   ar
    20    10    11    1
    21    10    12   ar
    22    12    13    1
    23    12    14   ar
    24     5     6   ar
    25    25    26    1
    26    26    27    1
    27    27    22    1
    28     6     1   ar
    29    14     7   ar
@<TRIPOS>MOLECULE
*****
 27 29 0 0 0
SMALL
GASTEIGER

@<TRIPOS>ATOM
      1 C         143.8497  139.9008  163.0536 C.ar    1  UNL1        0.1099
      2 C         144.5583  139.2217  164.1880 C.ar    1  UNL1        0.0337
      3 C         143.5294  138.8181  165.2021 C.ar    1  UNL1        0.0621
      4 C         143.7979  138.1093  166.4965 C.3     1  UNL1        0.0522
      5 N         142.1849  139.2477  164.6945 N.ar    1  UNL1       -0.2338
      6 N         142.3829  139.9168  163.3667 N.ar    1  UNL1       -0.1673
      7 C         140.8727  139.0439  165.3921 C.ar    1  UNL1        0.0848
      8 C         139.8688  138.0790  164.8347 C.ar    1  UNL1        0.0216
      9 C         138.5567  137.8752  165.5323 C.ar    1  UNL1        0.0335
     10 C         138.2485  138.6365  166.7875 C.ar    1  UNL1        0.1675
     11 F         136.9363  138.4328  167.4853 F       1  UNL1       -0.2018
     12 C         139.2525  139.6015  167.3450 C.ar    1  UNL1        0.1689
     13 F         138.9443  140.3628  168.6002 F       1  UNL1       -0.2017
     14 C         140.5646  139.8053  166.6473 C.ar    1  UNL1        0.0511
     15 C         144.4948  140.4647  161.8224 C.3     1  UNL1        0.1893
     16 O         145.3174  141.7159  161.9127 O.3     1  UNL1       -0.3458
     17 C         144.6754  143.0532  161.6906 C.3     1  UNL1        0.1600
     18 C         143.4481  143.1632  160.8353 C.3     1  UNL1        0.1047
     19 C         137.6580  143.2276  164.5393 C.3     1  UNL1        0.0948
     20 C         138.0132  142.4852  163.2853 C.2     1  UNL1        0.2262
     21 O         137.0098  141.5733  162.6439 O.2     1  UNL1       -0.2749
     22 N         139.3719  142.6547  162.6728 N.am    1  UNL1       -0.2767
     23 C         140.3754  143.5666  163.3143 C.3     1  UNL1        0.1107
     24 C         141.7341  143.7361  162.7018 C.3     1  UNL1        0.0940
     25 N         142.0894  142.9937  161.4478 N.3     1  UNL1       -0.2676
     26 C         141.0859  142.0818  160.8063 C.3     1  UNL1        0.0940
     27 C         139.7272  141.9123  161.4188 C.3     1  UNL1        0.1107
@<TRIPOS>BOND
     1    19    20    1
     2    20    21    2
     3    20    22   am
     4    22    23    1
     5    23    24    1
     6    24    25    1
     7    25    18    1
     8    18    17    1
     9    17    16    1
    10    16    15    1
    11    15     1    1
    12     1     2   ar
    13     2     3   ar
    14     3     4    1
    15     3     5   ar
    16     5     7    1
    17     7     8   ar
    18     8     9   ar
    19     9    10   ar
    20    10    11    1
    21    10    12   ar
    22    12    13    1
    23    12    14   ar
    24     5     6   ar
    25    25    26    1
    26    26    27    1
    27    27    22    1
    28     6     1   ar
    29    14     7   ar
@<TRIPOS>MOLECULE
*****
 27 29 0 0 0
SMALL
GASTEIGER

@<TRIPOS>ATOM
      1 C         140.4495  137.9407  164.2598 C.ar    1  UNL1        0.1099
      2 C         139.1432  137.5803  164.9030 C.ar    1  UNL1        0.0337
      3 C         138.8922  138.5512  166.0185 C.ar    1  UNL1        0.0621
      4 C         137.6994  138.5600  166.9280 C.3     1  UNL1        0.0522
      5 N         140.0434  139.5117  166.0648 N.ar    1  UNL1       -0.2338
      6 N         141.0059  139.1343  164.9779 N.ar    1  UNL1       -0.1673
      7 C         140.2041  140.6496  167.0287 C.ar    1  UNL1        0.0848
      8 C         140.0989  142.0647  166.5427 C.ar    1  UNL1        0.0216
      9 C         140.2595  143.2027  167.5066 C.ar    1  UNL1        0.0335
     10 C         140.5253  142.9255  168.9566 C.ar    1  UNL1        0.1675
     11 F         140.6859  144.0635  169.9207 F       1  UNL1       -0.2018
     12 C         140.6305  141.5103  169.4427 C.ar    1  UNL1        0.1689
     13 F         140.8964  141.2331  170.8927 F       1  UNL1       -0.2017
     14 C         140.4699  140.3723  168.4787 C.ar    1  UNL1        0.0511
     15 C         141.0874  137.2319  163.1019 C.3     1  UNL1        0.1893
     16 O         141.3237  137.9625  161.8133 O.3     1  UNL1       -0.3458
     17 C         142.5982  137.7475  161.0521 C.3     1  UNL1        0.1600
     18 C         143.8975  138.2507  161.6076 C.3     1  UNL1        0.1047
     19 C         143.5778  144.8265  163.5840 C.3     1  UNL1        0.0948
     20 C         144.1416  143.6200  164.2742 C.2     1  UNL1        0.2262
     21 O         144.7663  143.7558  165.6311 O.2     1  UNL1       -0.2749
     22 N         144.0805  142.2777  163.6076 N.am    1  UNL1       -0.2767
     23 C         143.4558  142.1419  162.2507 C.3     1  UNL1        0.1107
     24 C         143.3948  140.7995  161.5840 C.3     1  UNL1        0.0940
     25 N         143.9585  139.5930  162.2743 N.3     1  UNL1       -0.2676
     26 C         144.5832  139.7288  163.6312 C.3     1  UNL1        0.0940
     27 C         144.6443  141.0712  164.2978 C.3     1  UNL1        0.1107
@<TRIPOS>BOND
     1    19    20    1
     2    20    21    2
     3    20    22   am
     4    22    23    1
     5    23    24    1
     6    24    25    1
     7    25    18    1
     8    18    17    1
     9    17    16    1
    10    16    15    1
    11    15     1    1
    12     1     2   ar
    13     2     3   ar
    14     3     4    1
    15     3     5   ar
    16     5     7    1
    17     7     8   ar
    18     8     9   ar
    19     9    10   ar
    20    10    11    1
    21    10    12   ar
    22    12    13    1
    23    12    14   ar
    24     5     6   ar
    25    25    26    1
    26    26    27    1
    27    27    22    1
    28     6     1   ar
    29    14     7   ar
