@<TRIPOS>MOLECULE
*****
 28 31 0 0 0
SMALL
GASTEIGER

@<TRIPOS>ATOM
      1 C         138.8609  142.4327  162.0501 C.ar    1  UNL1        0.1917
      2 N         137.8962  141.3415  161.6913 N.ar    1  UNL1       -0.1268
      3 N         137.7278  140.4584  162.8920 N.ar    1  UNL1       -0.1316
      4 C         138.5883  141.0037  163.9929 C.ar    1  UNL1        0.1616
      5 N         139.2886  142.2239  163.4726 N.ar    1  UNL1       -0.2940
      6 C         140.2253  142.9873  164.3613 C.3     1  UNL1        0.1302
      7 C         140.4618  142.5304  165.7704 C.3     1  UNL1        0.1186
      8 N         139.7614  141.3103  166.2908 N.am    1  UNL1       -0.2687
      9 C         139.9978  140.8534  167.6998 C.2     1  UNL1        0.2494
     10 O         139.2975  139.6332  168.2201 O.2     1  UNL1       -0.2699
     11 C         138.8247  140.5469  165.4020 C.3     1  UNL1        0.1367
     12 C         140.9345  141.6168  168.5885 C.ar    1  UNL1        0.0537
     13 C         142.3591  141.1708  168.7359 C.ar    1  UNL1        0.0068
     14 C         143.2958  141.9342  169.6247 C.ar    1  UNL1        0.0298
     15 C         142.8079  143.1435  170.3660 C.ar    1  UNL1        0.1401
     16 F         143.7447  143.9069  171.2547 F       1  UNL1       -0.2042
     17 C         141.3834  143.5895  170.2186 C.ar    1  UNL1        0.0298
     18 C         140.4467  142.8261  169.3298 C.ar    1  UNL1        0.0068
     19 C         140.2704  145.1340  157.7378 C.3     1  UNL1        0.0744
     20 C         139.9655  144.7801  159.1632 C.ar    1  UNL1        0.1481
     21 N         140.0756  145.7000  160.3429 N.ar    1  UNL1       -0.1929
     22 S         139.6751  144.9326  161.5680 S.2     1  UNL1        0.0369
     23 C         139.3177  143.5384  161.1454 C.ar    1  UNL1        0.1652
     24 N         139.4971  143.4442  159.6591 N.ar    1  UNL1       -0.2190
     25 C         138.1244  139.3267  165.9223 C.3     1  UNL1        0.0593
     26 C         138.5628  137.9631  165.4767 C.3     1  UNL1        0.1393
     27 O         138.7256  137.6680  164.0151 O.3     1  UNL1       -0.3819
     28 H         137.8607  137.7112  163.5782 H       1  UNL1        0.2104
@<TRIPOS>BOND
     1    19    20    1
     2    20    21   ar
     3    21    22   ar
     4    22    23   ar
     5    23     1    1
     6     1     2   ar
     7     2     3   ar
     8     3     4   ar
     9     4     5   ar
    10     5     6    1
    11     6     7    1
    12     7     8    1
    13     8     9   am
    14     9    10    2
    15     9    12    1
    16    12    13   ar
    17    13    14   ar
    18    14    15   ar
    19    15    16    1
    20    15    17   ar
    21    17    18   ar
    22     8    11    1
    23    11    25    1
    24    25    26    1
    25    26    27    1
    26    23    24   ar
    27    24    20   ar
    28     5     1   ar
    29    18    12   ar
    30    11     4    1
    31    27    28    1
@<TRIPOS>MOLECULE
*****
 28 31 0 0 0
SMALL
GASTEIGER

@<TRIPOS>ATOM
      1 C         140.9076  138.9693  162.1075 C.ar    1  UNL1        0.1917
      2 N         139.6957  138.1176  161.8711 N.ar    1  UNL1       -0.1268
      3 N         138.9206  138.0482  163.1534 N.ar    1  UNL1       -0.1316
      4 C         139.6534  138.8570  164.1824 C.ar    1  UNL1        0.1616
      5 N         140.8815  139.4263  163.5360 N.ar    1  UNL1       -0.2940
      6 C         141.8172  140.2872  164.3316 C.3     1  UNL1        0.1302
      7 C         141.5250  140.5789  165.7737 C.3     1  UNL1        0.1186
      8 N         140.2969  140.0096  166.4201 N.am    1  UNL1       -0.2687
      9 C         140.0046  140.3013  167.8621 C.2     1  UNL1        0.2494
     10 O         138.7766  139.7320  168.5085 O.2     1  UNL1       -0.2699
     11 C         139.3611  139.1486  165.6244 C.3     1  UNL1        0.1367
     12 C         140.9404  141.1622  168.6578 C.ar    1  UNL1        0.0537
     13 C         140.5302  142.5500  169.0525 C.ar    1  UNL1        0.0068
     14 C         141.4660  143.4109  169.8482 C.ar    1  UNL1        0.0298
     15 C         142.8120  142.8841  170.2491 C.ar    1  UNL1        0.1401
     16 F         143.7479  143.7451  171.0448 F       1  UNL1       -0.2042
     17 C         143.2222  141.4963  169.8543 C.ar    1  UNL1        0.0298
     18 C         142.2864  140.6354  169.0587 C.ar    1  UNL1        0.0068
     19 C         144.0987  141.6805  158.8909 C.3     1  UNL1        0.0744
     20 C         143.4276  140.5513  159.6151 C.ar    1  UNL1        0.1481
     21 N         143.7353  139.0923  159.4514 N.ar    1  UNL1       -0.1929
     22 S         142.8287  138.3221  160.3653 S.2     1  UNL1        0.0369
     23 C         141.9608  139.3050  161.0936 C.ar    1  UNL1        0.1652
     24 N         142.3309  140.6828  160.6300 N.ar    1  UNL1       -0.2190
     25 C         138.1331  138.5794  166.2708 C.3     1  UNL1        0.0593
     26 C         137.9572  137.0928  166.3679 C.3     1  UNL1        0.1393
     27 O         137.1091  136.5076  167.4580 O.3     1  UNL1       -0.3819
     28 H         137.5243  136.6785  168.3178 H       1  UNL1        0.2104
@<TRIPOS>BOND
     1    19    20    1
     2    20    21   ar
     3    21    22   ar
     4    22    23   ar
     5    23     1    1
     6     1     2   ar
     7     2     3   ar
     8     3     4   ar
     9     4     5   ar
    10     5     6    1
    11     6     7    1
    12     7     8    1
    13     8     9   am
    14     9    10    2
    15     9    12    1
    16    12    13   ar
    17    13    14   ar
    18    14    15   ar
    19    15    16    1
    20    15    17   ar
    21    17    18   ar
    22     8    11    1
    23    11    25    1
    24    25    26    1
    25    26    27    1
    26    23    24   ar
    27    24    20   ar
    28     5     1   ar
    29    18    12   ar
    30    11     4    1
    31    27    28    1
@<TRIPOS>MOLECULE
*****
 28 31 0 0 0
SMALL
GASTEIGER

@<TRIPOS>ATOM
      1 C         142.3154  143.0082  159.9797 C.ar    1  UNL1        0.1917
      2 N         143.7999  142.9644  159.7687 N.ar    1  UNL1       -0.1268
      3 N         144.3895  142.0600  160.8100 N.ar    1  UNL1       -0.1316
      4 C         143.2695  141.5449  161.6645 C.ar    1  UNL1        0.1616
      5 N         141.9876  142.1309  161.1513 N.ar    1  UNL1       -0.2940
      6 C         140.6875  141.7899  161.8172 C.3     1  UNL1        0.1302
      7 C         140.6692  140.8629  162.9964 C.3     1  UNL1        0.1186
      8 N         141.9511  140.2768  163.5096 N.am    1  UNL1       -0.2687
      9 C         141.9328  139.3498  164.6887 C.2     1  UNL1        0.2494
     10 O         143.2147  138.7638  165.2019 O.2     1  UNL1       -0.2699
     11 C         143.2512  140.6179  162.8436 C.3     1  UNL1        0.1367
     12 C         140.6327  139.0089  165.3545 C.ar    1  UNL1        0.0537
     13 C         140.1424  139.8324  166.5084 C.ar    1  UNL1        0.0068
     14 C         138.8422  139.4914  167.1743 C.ar    1  UNL1        0.0298
     15 C         138.0325  138.3269  166.6863 C.ar    1  UNL1        0.1401
     16 F         136.7323  137.9859  167.3522 F       1  UNL1       -0.2042
     17 C         138.5228  137.5034  165.5324 C.ar    1  UNL1        0.0298
     18 C         139.8229  137.8443  164.8665 C.ar    1  UNL1        0.0068
     19 C         139.0337  144.4612  156.1067 C.3     1  UNL1        0.0744
     20 C         139.8231  144.4596  157.3822 C.ar    1  UNL1        0.1481
     21 N         139.8116  145.5355  158.4273 N.ar    1  UNL1       -0.1929
     22 S         140.7439  145.1227  159.5276 S.2     1  UNL1        0.0369
     23 C         141.3315  143.7918  159.1624 C.ar    1  UNL1        0.1652
     24 N         140.7624  143.3819  157.8365 N.ar    1  UNL1       -0.2190
     25 C         144.5331  140.0318  163.3568 C.3     1  UNL1        0.0593
     26 C         145.5732  140.9230  163.9685 C.3     1  UNL1        0.1393
     27 O         146.3923  141.8278  163.0966 O.3     1  UNL1       -0.3819
     28 H         146.9571  141.2936  162.5165 H       1  UNL1        0.2104
@<TRIPOS>BOND
     1    19    20    1
     2    20    21   ar
     3    21    22   ar
     4    22    23   ar
     5    23     1    1
     6     1     2   ar
     7     2     3   ar
     8     3     4   ar
     9     4     5   ar
    10     5     6    1
    11     6     7    1
    12     7     8    1
    13     8     9   am
    14     9    10    2
    15     9    12    1
    16    12    13   ar
    17    13    14   ar
    18    14    15   ar
    19    15    16    1
    20    15    17   ar
    21    17    18   ar
    22     8    11    1
    23    11    25    1
    24    25    26    1
    25    26    27    1
    26    23    24   ar
    27    24    20   ar
    28     5     1   ar
    29    18    12   ar
    30    11     4    1
    31    27    28    1
@<TRIPOS>MOLECULE
*****
 28 31 0 0 0
SMALL
GASTEIGER

@<TRIPOS>ATOM
      1 C         141.3499  141.3999  160.8542 C.ar    1  UNL1        0.1917
      2 N         140.4461  142.4507  160.2807 N.ar    1  UNL1       -0.1268
      3 N         139.8558  143.2268  161.4205 N.ar    1  UNL1       -0.1316
      4 C         140.3948  142.6557  162.6985 C.ar    1  UNL1        0.1616
      5 N         141.3182  141.5265  162.3485 N.ar    1  UNL1       -0.2940
      6 C         142.0108  140.7596  163.4357 C.3     1  UNL1        0.1302
      7 C         141.7800  141.1218  164.8730 C.3     1  UNL1        0.1186
      8 N         140.8567  142.2509  165.2230 N.am    1  UNL1       -0.2687
      9 C         140.6259  142.6130  166.6602 C.2     1  UNL1        0.2494
     10 O         139.7025  143.7421  167.0102 O.2     1  UNL1       -0.2699
     11 C         140.1640  143.0178  164.1357 C.3     1  UNL1        0.1367
     12 C         141.3185  141.8461  167.7474 C.ar    1  UNL1        0.0537
     13 C         142.6085  142.3549  168.3193 C.ar    1  UNL1        0.0068
     14 C         143.3011  141.5879  169.4066 C.ar    1  UNL1        0.0298
     15 C         142.7038  140.3121  169.9218 C.ar    1  UNL1        0.1401
     16 F         143.3964  139.5451  171.0091 F       1  UNL1       -0.2042
     17 C         141.4138  139.8033  169.3499 C.ar    1  UNL1        0.0298
     18 C         140.7212  140.5702  168.2627 C.ar    1  UNL1        0.0068
     19 C         142.6310  137.3512  157.7162 C.3     1  UNL1        0.0744
     20 C         142.7345  138.5373  158.6286 C.ar    1  UNL1        0.1481
     21 N         144.0059  139.1765  159.1028 N.ar    1  UNL1       -0.1929
     22 S         143.6420  140.3267  159.9943 S.2     1  UNL1        0.0369
     23 C         142.1456  140.3983  160.0710 C.ar    1  UNL1        0.1652
     24 N         141.5848  139.2924  159.2269 N.ar    1  UNL1       -0.2190
     25 C         139.2407  144.1469  164.4857 C.3     1  UNL1        0.0593
     26 C         137.8025  144.0985  164.0620 C.3     1  UNL1        0.1393
     27 O         137.4125  144.5344  162.6807 O.3     1  UNL1       -0.3819
     28 H         137.5788  145.4850  162.5826 H       1  UNL1        0.2104
@<TRIPOS>BOND
     1    19    20    1
     2    20    21   ar
     3    21    22   ar
     4    22    23   ar
     5    23     1    1
     6     1     2   ar
     7     2     3   ar
     8     3     4   ar
     9     4     5   ar
    10     5     6    1
    11     6     7    1
    12     7     8    1
    13     8     9   am
    14     9    10    2
    15     9    12    1
    16    12    13   ar
    17    13    14   ar
    18    14    15   ar
    19    15    16    1
    20    15    17   ar
    21    17    18   ar
    22     8    11    1
    23    11    25    1
    24    25    26    1
    25    26    27    1
    26    23    24   ar
    27    24    20   ar
    28     5     1   ar
    29    18    12   ar
    30    11     4    1
    31    27    28    1
@<TRIPOS>MOLECULE
*****
 28 31 0 0 0
SMALL
GASTEIGER

@<TRIPOS>ATOM
      1 C         140.1724  143.9993  159.1641 C.ar    1  UNL1        0.1917
      2 N         141.1033  145.1623  159.3398 N.ar    1  UNL1       -0.1268
      3 N         141.6706  145.0965  160.7268 N.ar    1  UNL1       -0.1316
      4 C         141.0902  143.8929  161.4084 C.ar    1  UNL1        0.1616
      5 N         140.1643  143.2148  160.4426 N.ar    1  UNL1       -0.2940
      6 C         139.4334  141.9706  160.8520 C.3     1  UNL1        0.1302
      7 C         139.6285  141.4044  162.2274 C.3     1  UNL1        0.1186
      8 N         140.5544  142.0825  163.1932 N.am    1  UNL1       -0.2687
      9 C         140.7494  141.5164  164.5685 C.2     1  UNL1        0.2494
     10 O         141.6754  142.1945  165.5343 O.2     1  UNL1       -0.2699
     11 C         141.2853  143.3268  162.7837 C.3     1  UNL1        0.1367
     12 C         140.0186  140.2722  164.9779 C.ar    1  UNL1        0.0537
     13 C         138.7878  140.3713  165.8297 C.ar    1  UNL1        0.0068
     14 C         138.0569  139.1269  166.2391 C.ar    1  UNL1        0.0298
     15 C         138.5568  137.7837  165.7968 C.ar    1  UNL1        0.1401
     16 F         137.8259  136.5393  166.2063 F       1  UNL1       -0.2042
     17 C         139.7875  137.6846  164.9451 C.ar    1  UNL1        0.0298
     18 C         140.5184  138.9288  164.5356 C.ar    1  UNL1        0.0068
     19 C         136.5563  141.9632  155.8994 C.3     1  UNL1        0.0744
     20 C         137.7252  142.7414  156.4265 C.ar    1  UNL1        0.1481
     21 N         138.6334  143.6223  155.6208 N.ar    1  UNL1       -0.1929
     22 S         139.6607  144.2008  156.5483 S.2     1  UNL1        0.0369
     23 C         139.3874  143.6773  157.9271 C.ar    1  UNL1        0.1652
     24 N         138.1912  142.7754  157.8519 N.ar    1  UNL1       -0.2190
     25 C         142.2112  144.0049  163.7495 C.3     1  UNL1        0.0593
     26 C         143.6504  144.2185  163.3846 C.3     1  UNL1        0.1393
     27 O         144.0668  145.4752  162.6794 O.3     1  UNL1       -0.3819
     28 H         143.6702  145.4960  161.7945 H       1  UNL1        0.2104
@<TRIPOS>BOND
     1    19    20    1
     2    20    21   ar
     3    21    22   ar
     4    22    23   ar
     5    23     1    1
     6     1     2   ar
     7     2     3   ar
     8     3     4   ar
     9     4     5   ar
    10     5     6    1
    11     6     7    1
    12     7     8    1
    13     8     9   am
    14     9    10    2
    15     9    12    1
    16    12    13   ar
    17    13    14   ar
    18    14    15   ar
    19    15    16    1
    20    15    17   ar
    21    17    18   ar
    22     8    11    1
    23    11    25    1
    24    25    26    1
    25    26    27    1
    26    23    24   ar
    27    24    20   ar
    28     5     1   ar
    29    18    12   ar
    30    11     4    1
    31    27    28    1
@<TRIPOS>MOLECULE
*****
 28 31 0 0 0
SMALL
GASTEIGER

@<TRIPOS>ATOM
      1 C         138.3674  142.3684  157.6990 C.ar    1  UNL1        0.1917
      2 N         139.4241  143.3573  157.3047 N.ar    1  UNL1       -0.1268
      3 N         140.4025  143.4660  158.4365 N.ar    1  UNL1       -0.1316
      4 C         139.9506  142.5442  159.5301 C.ar    1  UNL1        0.1616
      5 N         138.6927  141.8659  159.0743 N.ar    1  UNL1       -0.2940
      6 C         138.0062  140.8783  159.9705 C.3     1  UNL1        0.1302
      7 C         138.5774  140.5689  161.3226 C.3     1  UNL1        0.1186
      8 N         139.8353  141.2472  161.7784 N.am    1  UNL1       -0.2687
      9 C         140.4065  140.9380  163.1304 C.2     1  UNL1        0.2494
     10 O         141.6643  141.6163  163.5862 O.2     1  UNL1       -0.2699
     11 C         140.5218  142.2349  160.8821 C.3     1  UNL1        0.1367
     12 C         139.7200  139.9503  164.0266 C.ar    1  UNL1        0.0537
     13 C         138.7326  140.4267  165.0504 C.ar    1  UNL1        0.0068
     14 C         138.0460  139.4390  165.9467 C.ar    1  UNL1        0.0298
     15 C         138.3468  137.9750  165.8190 C.ar    1  UNL1        0.1401
     16 F         137.6603  136.9873  166.7152 F       1  UNL1       -0.2042
     17 C         139.3342  137.4987  164.7951 C.ar    1  UNL1        0.0298
     18 C         140.0207  138.4863  163.8990 C.ar    1  UNL1        0.0068
     19 C         134.2923  139.6130  155.7800 C.3     1  UNL1        0.0744
     20 C         135.3186  140.6881  155.9823 C.ar    1  UNL1        0.1481
     21 N         135.4463  141.9477  155.1778 N.ar    1  UNL1       -0.1929
     22 S         136.6040  142.7305  155.7230 S.2     1  UNL1        0.0369
     23 C         137.1917  141.9547  156.8644 C.ar    1  UNL1        0.1652
     24 N         136.3973  140.6924  157.0247 N.ar    1  UNL1       -0.2190
     25 C         141.7796  142.9132  161.3379 C.3     1  UNL1        0.0593
     26 C         141.8075  144.4029  161.5122 C.3     1  UNL1        0.1393
     27 O         143.0043  145.0634  162.1299 O.3     1  UNL1       -0.3819
     28 H         143.0819  144.7900  163.0573 H       1  UNL1        0.2104
@<TRIPOS>BOND
     1    19    20    1
     2    20    21   ar
     3    21    22   ar
     4    22    23   ar
     5    23     1    1
     6     1     2   ar
     7     2     3   ar
     8     3     4   ar
     9     4     5   ar
    10     5     6    1
    11     6     7    1
    12     7     8    1
    13     8     9   am
    14     9    10    2
    15     9    12    1
    16    12    13   ar
    17    13    14   ar
    18    14    15   ar
    19    15    16    1
    20    15    17   ar
    21    17    18   ar
    22     8    11    1
    23    11    25    1
    24    25    26    1
    25    26    27    1
    26    23    24   ar
    27    24    20   ar
    28     5     1   ar
    29    18    12   ar
    30    11     4    1
    31    27    28    1
@<TRIPOS>MOLECULE
*****
 28 31 0 0 0
SMALL
GASTEIGER

@<TRIPOS>ATOM
      1 C         143.3444  139.7237  159.2842 C.ar    1  UNL1        0.1917
      2 N         143.2710  138.2323  159.1418 N.ar    1  UNL1       -0.1268
      3 N         142.3230  137.7135  160.1821 N.ar    1  UNL1       -0.1316
      4 C         141.8106  138.8843  160.9675 C.ar    1  UNL1        0.1616
      5 N         142.4419  140.1267  160.4125 N.ar    1  UNL1       -0.2940
      6 C         142.1134  141.4644  161.0062 C.3     1  UNL1        0.1302
      7 C         141.1535  141.5597  162.1550 C.3     1  UNL1        0.1186
      8 N         140.5222  140.3174  162.7100 N.am    1  UNL1       -0.2687
      9 C         139.5624  140.4127  163.8588 C.2     1  UNL1        0.2494
     10 O         138.9312  139.1703  164.4137 O.2     1  UNL1       -0.2699
     11 C         140.8508  138.9796  162.1162 C.3     1  UNL1        0.1367
     12 C         139.2339  141.7504  164.4525 C.ar    1  UNL1        0.0537
     13 C         138.0512  142.5241  163.9498 C.ar    1  UNL1        0.0068
     14 C         137.7227  143.8618  164.5436 C.ar    1  UNL1        0.0298
     15 C         138.5768  144.4258  165.6401 C.ar    1  UNL1        0.1401
     16 F         138.2483  145.7636  166.2339 F       1  UNL1       -0.2042
     17 C         139.7595  143.6522  166.1428 C.ar    1  UNL1        0.0298
     18 C         140.0880  142.3145  165.5491 C.ar    1  UNL1        0.0068
     19 C         146.4819  141.5904  155.4695 C.3     1  UNL1        0.0744
     20 C         145.6168  141.5076  156.6920 C.ar    1  UNL1        0.1481
     21 N         145.2876  142.6412  157.6176 N.ar    1  UNL1       -0.1929
     22 S         144.3963  142.1109  158.7013 S.2     1  UNL1        0.0369
     23 C         144.1746  140.6496  158.4455 C.ar    1  UNL1        0.1652
     24 N         144.9289  140.2767  157.2037 N.ar    1  UNL1       -0.2190
     25 C         140.2196  137.7372  162.6712 C.3     1  UNL1        0.0593
     26 C         140.9678  136.8934  163.6603 C.3     1  UNL1        0.1393
     27 O         141.5959  137.5291  164.8649 O.3     1  UNL1       -0.3819
     28 H         142.3109  138.1207  164.5825 H       1  UNL1        0.2104
@<TRIPOS>BOND
     1    19    20    1
     2    20    21   ar
     3    21    22   ar
     4    22    23   ar
     5    23     1    1
     6     1     2   ar
     7     2     3   ar
     8     3     4   ar
     9     4     5   ar
    10     5     6    1
    11     6     7    1
    12     7     8    1
    13     8     9   am
    14     9    10    2
    15     9    12    1
    16    12    13   ar
    17    13    14   ar
    18    14    15   ar
    19    15    16    1
    20    15    17   ar
    21    17    18   ar
    22     8    11    1
    23    11    25    1
    24    25    26    1
    25    26    27    1
    26    23    24   ar
    27    24    20   ar
    28     5     1   ar
    29    18    12   ar
    30    11     4    1
    31    27    28    1
@<TRIPOS>MOLECULE
*****
 28 31 0 0 0
SMALL
GASTEIGER

@<TRIPOS>ATOM
      1 C         142.1898  138.6586  158.0981 C.ar    1  UNL1        0.1917
      2 N         143.6012  139.1223  157.8906 N.ar    1  UNL1       -0.1268
      3 N         144.1618  139.5128  159.2259 N.ar    1  UNL1       -0.1316
      4 C         143.0969  139.2904  160.2587 C.ar    1  UNL1        0.1616
      5 N         141.8782  138.7625  159.5617 N.ar    1  UNL1       -0.2940
      6 C         140.6421  138.4445  160.3497 C.3     1  UNL1        0.1302
      7 C         140.6248  138.6545  161.8348 C.3     1  UNL1        0.1186
      8 N         141.8435  139.1824  162.5319 N.am    1  UNL1       -0.2687
      9 C         141.8262  139.3924  164.0170 C.2     1  UNL1        0.2494
     10 O         143.0450  139.9203  164.7141 O.2     1  UNL1       -0.2699
     11 C         143.0796  139.5003  161.7438 C.3     1  UNL1        0.1367
     12 C         140.5901  139.0744  164.8050 C.ar    1  UNL1        0.0537
     13 C         140.0453  137.6769  164.8141 C.ar    1  UNL1        0.0068
     14 C         138.8091  137.3590  165.6022 C.ar    1  UNL1        0.0298
     15 C         138.1179  138.4386  166.3811 C.ar    1  UNL1        0.1401
     16 F         136.8818  138.1207  167.1692 F       1  UNL1       -0.2042
     17 C         138.6628  139.8361  166.3720 C.ar    1  UNL1        0.0298
     18 C         139.8989  140.1540  165.5840 C.ar    1  UNL1        0.0068
     19 C         140.2521  136.1275  153.8886 C.3     1  UNL1        0.0744
     20 C         140.3637  137.0124  155.0947 C.ar    1  UNL1        0.1481
     21 N         139.2658  137.8532  155.6758 N.ar    1  UNL1       -0.1929
     22 S         139.8163  138.5723  156.8717 S.2     1  UNL1        0.0369
     23 C         141.2543  138.1758  157.0295 C.ar    1  UNL1        0.1652
     24 N         141.5926  137.2117  155.9313 N.ar    1  UNL1       -0.2190
     25 C         144.2984  140.0283  162.4409 C.3     1  UNL1        0.0593
     26 C         144.7282  141.4494  162.2271 C.3     1  UNL1        0.1393
     27 O         146.0923  141.8943  162.6644 O.3     1  UNL1       -0.3819
     28 H         146.1521  141.8504  163.6316 H       1  UNL1        0.2104
@<TRIPOS>BOND
     1    19    20    1
     2    20    21   ar
     3    21    22   ar
     4    22    23   ar
     5    23     1    1
     6     1     2   ar
     7     2     3   ar
     8     3     4   ar
     9     4     5   ar
    10     5     6    1
    11     6     7    1
    12     7     8    1
    13     8     9   am
    14     9    10    2
    15     9    12    1
    16    12    13   ar
    17    13    14   ar
    18    14    15   ar
    19    15    16    1
    20    15    17   ar
    21    17    18   ar
    22     8    11    1
    23    11    25    1
    24    25    26    1
    25    26    27    1
    26    23    24   ar
    27    24    20   ar
    28     5     1   ar
    29    18    12   ar
    30    11     4    1
    31    27    28    1
@<TRIPOS>MOLECULE
*****
 28 31 0 0 0
SMALL
GASTEIGER

@<TRIPOS>ATOM
      1 C         142.8616  138.5362  157.7462 C.ar    1  UNL1        0.1917
      2 N         143.8537  139.5344  157.2270 N.ar    1  UNL1       -0.1268
      3 N         143.9668  140.6415  158.2328 N.ar    1  UNL1       -0.1316
      4 C         143.0447  140.3275  159.3735 C.ar    1  UNL1        0.1616
      5 N         142.3617  139.0263  159.0727 N.ar    1  UNL1       -0.2940
      6 C         141.3727  138.4560  160.0456 C.3     1  UNL1        0.1302
      7 C         141.0667  139.1868  161.3194 C.3     1  UNL1        0.1186
      8 N         141.7498  140.4879  161.6202 N.am    1  UNL1       -0.2687
      9 C         141.4438  141.2187  162.8938 C.2     1  UNL1        0.2494
     10 O         142.1269  142.5199  163.1946 O.2     1  UNL1       -0.2699
     11 C         142.7388  141.0583  160.6472 C.3     1  UNL1        0.1367
     12 C         140.4549  140.6484  163.8667 C.ar    1  UNL1        0.0537
     13 C         140.9110  139.6844  164.9216 C.ar    1  UNL1        0.0068
     14 C         139.9220  139.1141  165.8946 C.ar    1  UNL1        0.0298
     15 C         138.4769  139.5077  165.8126 C.ar    1  UNL1        0.1401
     16 F         137.4878  138.9373  166.7856 F       1  UNL1       -0.2042
     17 C         138.0207  140.4716  164.7577 C.ar    1  UNL1        0.0298
     18 C         139.0097  141.0420  163.7848 C.ar    1  UNL1        0.0068
     19 C         142.6590  133.4901  156.2044 C.3     1  UNL1        0.0744
     20 C         142.3499  134.9506  156.3507 C.ar    1  UNL1        0.1481
     21 N         141.2480  135.6927  155.6541 N.ar    1  UNL1       -0.1929
     22 S         141.3056  137.1263  156.0921 S.2     1  UNL1        0.0369
     23 C         142.4431  137.2701  157.0593 C.ar    1  UNL1        0.1652
     24 N         143.0885  135.9255  157.2191 N.ar    1  UNL1       -0.2190
     25 C         143.4218  142.3595  160.9479 C.3     1  UNL1        0.0593
     26 C         144.9192  142.4239  161.0092 C.3     1  UNL1        0.1393
     27 O         145.6366  142.0195  162.2629 O.3     1  UNL1       -0.3819
     28 H         145.4181  142.6408  162.9751 H       1  UNL1        0.2104
@<TRIPOS>BOND
     1    19    20    1
     2    20    21   ar
     3    21    22   ar
     4    22    23   ar
     5    23     1    1
     6     1     2   ar
     7     2     3   ar
     8     3     4   ar
     9     4     5   ar
    10     5     6    1
    11     6     7    1
    12     7     8    1
    13     8     9   am
    14     9    10    2
    15     9    12    1
    16    12    13   ar
    17    13    14   ar
    18    14    15   ar
    19    15    16    1
    20    15    17   ar
    21    17    18   ar
    22     8    11    1
    23    11    25    1
    24    25    26    1
    25    26    27    1
    26    23    24   ar
    27    24    20   ar
    28     5     1   ar
    29    18    12   ar
    30    11     4    1
    31    27    28    1
