@<TRIPOS>MOLECULE
*****
 45 50 0 0 0
SMALL
GASTEIGER

@<TRIPOS>ATOM
      1 N         144.1037  141.6607  159.9363 N.pl3   1  UNL1       -0.3414
      2 C         144.1033  140.9945  158.5924 C.ar    1  UNL1        0.1432
      3 N         144.8013  141.6427  157.4338 N.ar    1  UNL1       -0.2265
      4 C         144.8009  140.9765  156.0898 C.ar    1  UNL1        0.1193
      5 C         144.1025  139.6620  155.9045 C.ar    1  UNL1        0.1021
      6 N         143.4045  139.0138  157.0632 N.ar    1  UNL1       -0.2865
      7 C         142.6375  137.7302  157.1824 C.ar    1  UNL1        0.1531
      8 N         142.1639  137.6031  158.5999 N.ar    1  UNL1       -0.2279
      9 C         142.6382  138.8081  159.3568 C.ar    1  UNL1        0.1036
     10 C         143.4049  139.6800  158.4071 C.ar    1  UNL1        0.1142
     11 H         144.5621  142.5234  160.0579 H       1  UNL1        0.1438
     12 H         143.6455  141.2352  160.6968 H       1  UNL1        0.1438
     13 C         142.3894  139.0916  160.8087 C.ar    1  UNL1        0.0467
     14 C         141.2544  139.9841  161.2149 C.ar    1  UNL1        0.0039
     15 C         141.0056  140.2675  162.6667 C.ar    1  UNL1        0.0047
     16 C         141.8919  139.6585  163.7124 C.ar    1  UNL1        0.0559
     17 C         143.0270  138.7660  163.3062 C.ar    1  UNL1        0.0342
     18 C         143.2758  138.4825  161.8544 C.ar    1  UNL1        0.1417
     19 F         144.4109  137.5900  161.4482 F       1  UNL1       -0.2041
     20 C         141.6432  139.9419  165.1642 C.2     1  UNL1        0.2506
     21 O         140.2398  139.9698  165.6931 O.2     1  UNL1       -0.2698
     22 N         142.7977  140.1975  166.0870 N.am    1  UNL1       -0.2658
     23 H         143.7188  140.1792  165.7399 H       1  UNL1        0.1566
     24 C         142.5489  140.4810  167.5389 C.ar    1  UNL1        0.1343
     25 C         142.0404  141.8267  167.9638 C.ar    1  UNL1        0.0383
     26 C         141.7915  142.1102  169.4156 C.ar    1  UNL1        0.0757
     27 C         142.0511  141.0480  170.4423 C.ar    1  UNL1        0.0246
     28 C         142.5595  139.7023  170.0174 C.ar    1  UNL1        0.1003
     29 N         142.8084  139.4188  168.5656 N.ar    1  UNL1       -0.2290
     30 C         141.2831  143.4559  169.8405 C.3     1  UNL1        0.4187
     31 F         140.7747  144.8016  170.2654 F       1  UNL1       -0.1659
     32 F         142.5893  143.7336  170.5237 F       1  UNL1       -0.1659
     33 F         139.9770  143.1782  169.1573 F       1  UNL1       -0.1659
     34 C         142.3880  136.7464  156.0778 C.3     1  UNL1        0.1875
     35 C         143.0209  135.3873  156.1269 C.3     1  UNL1        0.1099
     36 N         142.7714  134.4035  155.0223 N.3     1  UNL1       -0.2693
     37 C         141.8891  134.7788  153.8688 C.3     1  UNL1        0.1046
     38 C         141.2562  136.1379  153.8198 C.3     1  UNL1        0.1600
     39 O         141.5057  137.1217  154.9243 O.3     1  UNL1       -0.3458
     40 C         143.4042  133.0445  155.0714 C.3     1  UNL1        0.0627
     41 C         143.0766  132.0261  154.0200 C.3     1  UNL1        0.0481
     42 C         143.7095  130.6671  154.0692 C.3     1  UNL1        0.1435
     43 O         144.6701  130.3263  155.1697 O.3     1  UNL1       -0.3537
     44 C         144.9977  131.3447  156.2212 C.3     1  UNL1        0.1435
     45 C         144.3648  132.7038  156.1720 C.3     1  UNL1        0.0481
@<TRIPOS>BOND
     1     1     2    1
     2     2     3   ar
     3     3     4   ar
     4     4     5   ar
     5     5     6   ar
     6     6     7   ar
     7    34     7    1
     8    34    35    1
     9    35    36    1
    10    36    40    1
    11    40    41    1
    12    41    42    1
    13    42    43    1
    14    43    44    1
    15    44    45    1
    16    36    37    1
    17    37    38    1
    18    38    39    1
    19     7     8   ar
    20     8     9   ar
    21     9    13    1
    22    13    14   ar
    23    14    15   ar
    24    15    16   ar
    25    16    20    1
    26    20    21    2
    27    20    22   am
    28    22    24    1
    29    24    25   ar
    30    25    26   ar
    31    26    30    1
    32    30    31    1
    33    30    32    1
    34    30    33    1
    35    26    27   ar
    36    27    28   ar
    37    28    29   ar
    38    16    17   ar
    39    17    18   ar
    40    18    19    1
    41     9    10   ar
    42    10     2   ar
    43    10     6   ar
    44    39    34    1
    45    18    13   ar
    46    45    40    1
    47    29    24   ar
    48     1    11    1
    49     1    12    1
    50    22    23    1
@<TRIPOS>MOLECULE
*****
 45 50 0 0 0
SMALL
GASTEIGER

@<TRIPOS>ATOM
      1 N         144.1110  142.0749  159.7451 N.pl3   1  UNL1       -0.3414
      2 C         143.9419  141.2641  158.4945 C.ar    1  UNL1        0.1432
      3 N         144.3325  141.8428  157.1669 N.ar    1  UNL1       -0.2265
      4 C         144.1634  141.0320  155.9163 C.ar    1  UNL1        0.1193
      5 C         143.6037  139.6425  155.9933 C.ar    1  UNL1        0.1021
      6 N         143.2131  139.0638  157.3208 N.ar    1  UNL1       -0.2865
      7 C         142.6390  137.7325  157.7056 C.ar    1  UNL1        0.1531
      8 N         142.4533  137.7205  159.1941 N.ar    1  UNL1       -0.2279
      9 C         142.9126  139.0444  159.7291 C.ar    1  UNL1        0.1036
     10 C         143.3822  139.8746  158.5715 C.ar    1  UNL1        0.1142
     11 H         144.4783  142.9869  159.6946 H       1  UNL1        0.1438
     12 H         143.8546  141.6950  160.6164 H       1  UNL1        0.1438
     13 C         142.9039  139.4643  161.1691 C.ar    1  UNL1        0.0467
     14 C         144.0955  139.1897  162.0377 C.ar    1  UNL1        0.0039
     15 C         144.0868  139.6097  163.4777 C.ar    1  UNL1        0.0047
     16 C         142.8864  140.3043  164.0491 C.ar    1  UNL1        0.0559
     17 C         141.6947  140.5790  163.1805 C.ar    1  UNL1        0.0342
     18 C         141.7034  140.1590  161.7406 C.ar    1  UNL1        0.1417
     19 F         140.5118  140.4336  160.8720 F       1  UNL1       -0.2041
     20 C         142.8777  140.7243  165.4891 C.2     1  UNL1        0.2506
     21 O         143.6730  141.9184  165.9268 O.2     1  UNL1       -0.2698
     22 N         142.0738  139.9502  166.4913 N.am    1  UNL1       -0.2658
     23 H         141.5518  139.1664  166.2040 H       1  UNL1        0.1566
     24 C         142.0651  140.3702  167.9313 C.ar    1  UNL1        0.1343
     25 C         141.2505  141.5536  168.3624 C.ar    1  UNL1        0.0383
     26 C         141.2418  141.9737  169.8023 C.ar    1  UNL1        0.0757
     27 C         142.0478  141.2104  170.8111 C.ar    1  UNL1        0.0246
     28 C         142.8624  140.0270  170.3800 C.ar    1  UNL1        0.1003
     29 N         142.8711  139.6069  168.9401 N.ar    1  UNL1       -0.2290
     30 C         140.4271  143.1571  170.2334 C.3     1  UNL1        0.4187
     31 F         139.6125  144.3406  170.6645 F       1  UNL1       -0.1659
     32 F         139.2085  142.2868  170.3198 F       1  UNL1       -0.1659
     33 F         141.6457  144.0275  170.1471 F       1  UNL1       -0.1659
     34 C         142.3086  136.6102  156.7668 C.3     1  UNL1        0.1875
     35 C         143.0517  135.3105  156.8606 C.3     1  UNL1        0.1099
     36 N         142.7213  134.1883  155.9218 N.3     1  UNL1       -0.2693
     37 C         141.6480  134.3657  154.8892 C.3     1  UNL1        0.1046
     38 C         140.9050  135.6653  154.7953 C.3     1  UNL1        0.1600
     39 O         141.2353  136.7876  155.7342 O.3     1  UNL1       -0.3458
     40 C         143.4644  132.8887  156.0157 C.3     1  UNL1        0.0627
     41 C         143.4713  131.9428  154.8515 C.3     1  UNL1        0.0481
     42 C         144.2144  130.6432  154.9455 C.3     1  UNL1        0.1435
     43 O         144.9506  130.2894  156.2036 O.3     1  UNL1       -0.3537
     44 C         144.9437  131.2352  157.3678 C.3     1  UNL1        0.1435
     45 C         144.2006  132.5349  157.2738 C.3     1  UNL1        0.0481
@<TRIPOS>BOND
     1     1     2    1
     2     2     3   ar
     3     3     4   ar
     4     4     5   ar
     5     5     6   ar
     6     6     7   ar
     7    34     7    1
     8    34    35    1
     9    35    36    1
    10    36    40    1
    11    40    41    1
    12    41    42    1
    13    42    43    1
    14    43    44    1
    15    44    45    1
    16    36    37    1
    17    37    38    1
    18    38    39    1
    19     7     8   ar
    20     8     9   ar
    21     9    13    1
    22    13    14   ar
    23    14    15   ar
    24    15    16   ar
    25    16    20    1
    26    20    21    2
    27    20    22   am
    28    22    24    1
    29    24    25   ar
    30    25    26   ar
    31    26    30    1
    32    30    31    1
    33    30    32    1
    34    30    33    1
    35    26    27   ar
    36    27    28   ar
    37    28    29   ar
    38    16    17   ar
    39    17    18   ar
    40    18    19    1
    41     9    10   ar
    42    10     2   ar
    43    10     6   ar
    44    39    34    1
    45    18    13   ar
    46    45    40    1
    47    29    24   ar
    48     1    11    1
    49     1    12    1
    50    22    23    1
@<TRIPOS>MOLECULE
*****
 45 50 0 0 0
SMALL
GASTEIGER

@<TRIPOS>ATOM
      1 N         141.5823  145.2371  159.9182 N.pl3   1  UNL1       -0.3414
      2 C         140.8004  145.0724  158.6487 C.ar    1  UNL1        0.1432
      3 N         140.8440  146.1411  157.5971 N.ar    1  UNL1       -0.2265
      4 C         140.0622  145.9765  156.3276 C.ar    1  UNL1        0.1193
      5 C         139.2368  144.7431  156.1097 C.ar    1  UNL1        0.1021
      6 N         139.1932  143.6744  157.1613 N.ar    1  UNL1       -0.2865
      7 C         138.4745  142.3595  157.2269 C.ar    1  UNL1        0.1531
      8 N         138.8121  141.7114  158.5369 N.ar    1  UNL1       -0.2279
      9 C         139.7395  142.6259  159.2809 C.ar    1  UNL1        0.1036
     10 C         139.9750  143.8391  158.4308 C.ar    1  UNL1        0.1142
     11 H         142.1240  146.0466  160.0612 H       1  UNL1        0.1438
     12 H         141.5537  144.5357  160.6084 H       1  UNL1        0.1438
     13 C         140.3280  142.3718  160.6371 C.ar    1  UNL1        0.0467
     14 C         141.6754  141.7245  160.7606 C.ar    1  UNL1        0.0039
     15 C         142.2639  141.4704  162.1168 C.ar    1  UNL1        0.0047
     16 C         141.5050  141.8636  163.3494 C.ar    1  UNL1        0.0559
     17 C         140.1576  142.5110  163.2259 C.ar    1  UNL1        0.0342
     18 C         139.5690  142.7651  161.8697 C.ar    1  UNL1        0.1417
     19 F         138.2215  143.4124  161.7462 F       1  UNL1       -0.2041
     20 C         142.0936  141.6096  164.7055 C.2     1  UNL1        0.2506
     21 O         143.5746  141.7240  164.9137 O.2     1  UNL1       -0.2698
     22 N         141.2010  141.2410  165.8534 N.am    1  UNL1       -0.2658
     23 H         140.2290  141.1659  165.7167 H       1  UNL1        0.1566
     24 C         141.7897  140.9870  167.2095 C.ar    1  UNL1        0.1343
     25 C         142.2265  142.1389  168.0652 C.ar    1  UNL1        0.0383
     26 C         142.8151  141.8849  169.4213 C.ar    1  UNL1        0.0757
     27 C         142.9669  140.4790  169.9216 C.ar    1  UNL1        0.0246
     28 C         142.5301  139.3271  169.0659 C.ar    1  UNL1        0.1003
     29 N         141.9415  139.5811  167.7098 N.ar    1  UNL1       -0.2290
     30 C         143.2519  143.0368  170.2771 C.3     1  UNL1        0.4187
     31 F         143.6887  144.1887  171.1328 F       1  UNL1       -0.1659
     32 F         144.6704  142.5549  170.2018 F       1  UNL1       -0.1659
     33 F         141.8335  143.5187  170.3523 F       1  UNL1       -0.1659
     34 C         137.5759  141.7922  156.1682 C.3     1  UNL1        0.1875
     35 C         136.1807  141.3663  156.5180 C.3     1  UNL1        0.1099
     36 N         135.2821  140.7990  155.4594 N.3     1  UNL1       -0.2693
     37 C         135.7786  140.6575  154.0510 C.3     1  UNL1        0.1046
     38 C         137.1737  141.0834  153.7013 C.3     1  UNL1        0.1600
     39 O         138.0723  141.6507  154.7599 O.3     1  UNL1       -0.3458
     40 C         133.8870  140.3732  155.8092 C.3     1  UNL1        0.0627
     41 C         132.7370  141.3078  155.5770 C.3     1  UNL1        0.0481
     42 C         131.3420  140.8819  155.9268 C.3     1  UNL1        0.1435
     43 O         131.0968  139.5213  156.5089 O.3     1  UNL1       -0.3537
     44 C         132.2468  138.5866  156.7411 C.3     1  UNL1        0.1435
     45 C         133.6419  139.0126  156.3913 C.3     1  UNL1        0.0481
@<TRIPOS>BOND
     1     1     2    1
     2     2     3   ar
     3     3     4   ar
     4     4     5   ar
     5     5     6   ar
     6     6     7   ar
     7    34     7    1
     8    34    35    1
     9    35    36    1
    10    36    40    1
    11    40    41    1
    12    41    42    1
    13    42    43    1
    14    43    44    1
    15    44    45    1
    16    36    37    1
    17    37    38    1
    18    38    39    1
    19     7     8   ar
    20     8     9   ar
    21     9    13    1
    22    13    14   ar
    23    14    15   ar
    24    15    16   ar
    25    16    20    1
    26    20    21    2
    27    20    22   am
    28    22    24    1
    29    24    25   ar
    30    25    26   ar
    31    26    30    1
    32    30    31    1
    33    30    32    1
    34    30    33    1
    35    26    27   ar
    36    27    28   ar
    37    28    29   ar
    38    16    17   ar
    39    17    18   ar
    40    18    19    1
    41     9    10   ar
    42    10     2   ar
    43    10     6   ar
    44    39    34    1
    45    18    13   ar
    46    45    40    1
    47    29    24   ar
    48     1    11    1
    49     1    12    1
    50    22    23    1
@<TRIPOS>MOLECULE
*****
 45 50 0 0 0
SMALL
GASTEIGER

@<TRIPOS>ATOM
      1 N         141.7588  138.3791  159.5007 N.pl3   1  UNL1       -0.3414
      2 C         140.9990  138.5007  158.2132 C.ar    1  UNL1        0.1432
      3 N         141.4707  137.7687  156.9919 N.ar    1  UNL1       -0.2265
      4 C         140.7108  137.8903  155.7043 C.ar    1  UNL1        0.1193
      5 C         139.4792  138.7439  155.6380 C.ar    1  UNL1        0.1021
      6 N         139.0075  139.4759  156.8593 N.ar    1  UNL1       -0.2865
      7 C         137.8374  140.3842  157.0957 C.ar    1  UNL1        0.1531
      8 N         137.8740  140.8240  158.5293 N.ar    1  UNL1       -0.2279
      9 C         139.0668  140.1875  159.1790 C.ar    1  UNL1        0.1036
     10 C         139.7674  139.3543  158.1469 C.ar    1  UNL1        0.1142
     11 H         142.5672  137.8189  159.5442 H       1  UNL1        0.1438
     12 H         141.4492  138.8596  160.3023 H       1  UNL1        0.1438
     13 C         139.4856  140.3547  160.6096 C.ar    1  UNL1        0.0467
     14 C         140.4475  141.4419  160.9873 C.ar    1  UNL1        0.0039
     15 C         140.8663  141.6092  162.4179 C.ar    1  UNL1        0.0047
     16 C         140.3232  140.6892  163.4708 C.ar    1  UNL1        0.0559
     17 C         139.3613  139.6019  163.0932 C.ar    1  UNL1        0.0342
     18 C         138.9425  139.4347  161.6625 C.ar    1  UNL1        0.1417
     19 F         137.9806  138.3474  161.2848 F       1  UNL1       -0.2041
     20 C         140.7420  140.8564  164.9015 C.2     1  UNL1        0.2506
     21 O         140.7745  139.6688  165.8171 O.2     1  UNL1       -0.2698
     22 N         141.1283  142.2113  165.4164 N.am    1  UNL1       -0.2658
     23 H         141.1069  142.9908  164.8154 H       1  UNL1        0.1566
     24 C         141.5471  142.3784  166.8470 C.ar    1  UNL1        0.1343
     25 C         140.5319  142.7491  167.8872 C.ar    1  UNL1        0.0383
     26 C         140.9506  142.9163  169.3178 C.ar    1  UNL1        0.0757
     27 C         142.3845  142.7128  169.7082 C.ar    1  UNL1        0.0246
     28 C         143.3997  142.3421  168.6681 C.ar    1  UNL1        0.1003
     29 N         142.9810  142.1749  167.2374 N.ar    1  UNL1       -0.2290
     30 C         139.9354  143.2870  170.3580 C.3     1  UNL1        0.4187
     31 F         138.9202  143.6577  171.3982 F       1  UNL1       -0.1659
     32 F         140.3304  144.7284  170.2298 F       1  UNL1       -0.1659
     33 F         139.5404  141.8456  170.4862 F       1  UNL1       -0.1659
     34 C         136.8108  140.7827  156.0772 C.3     1  UNL1        0.1875
     35 C         135.3503  140.6512  156.3932 C.3     1  UNL1        0.1099
     36 N         134.3237  141.0498  155.3747 N.3     1  UNL1       -0.2693
     37 C         134.7575  141.5798  154.0402 C.3     1  UNL1        0.1046
     38 C         136.2180  141.7112  153.7242 C.3     1  UNL1        0.1600
     39 O         137.2445  141.3127  154.7427 O.3     1  UNL1       -0.3458
     40 C         132.8633  140.9183  155.6908 C.3     1  UNL1        0.0627
     41 C         132.4051  139.9300  156.7220 C.3     1  UNL1        0.0481
     42 C         130.9447  139.7986  157.0380 C.3     1  UNL1        0.1435
     43 O         129.9424  140.6554  156.3228 O.3     1  UNL1       -0.3537
     44 C         130.4006  141.6436  155.2916 C.3     1  UNL1        0.1435
     45 C         131.8611  141.7750  154.9756 C.3     1  UNL1        0.0481
@<TRIPOS>BOND
     1     1     2    1
     2     2     3   ar
     3     3     4   ar
     4     4     5   ar
     5     5     6   ar
     6     6     7   ar
     7    34     7    1
     8    34    35    1
     9    35    36    1
    10    36    40    1
    11    40    41    1
    12    41    42    1
    13    42    43    1
    14    43    44    1
    15    44    45    1
    16    36    37    1
    17    37    38    1
    18    38    39    1
    19     7     8   ar
    20     8     9   ar
    21     9    13    1
    22    13    14   ar
    23    14    15   ar
    24    15    16   ar
    25    16    20    1
    26    20    21    2
    27    20    22   am
    28    22    24    1
    29    24    25   ar
    30    25    26   ar
    31    26    30    1
    32    30    31    1
    33    30    32    1
    34    30    33    1
    35    26    27   ar
    36    27    28   ar
    37    28    29   ar
    38    16    17   ar
    39    17    18   ar
    40    18    19    1
    41     9    10   ar
    42    10     2   ar
    43    10     6   ar
    44    39    34    1
    45    18    13   ar
    46    45    40    1
    47    29    24   ar
    48     1    11    1
    49     1    12    1
    50    22    23    1
@<TRIPOS>MOLECULE
*****
 45 50 0 0 0
SMALL
GASTEIGER

@<TRIPOS>ATOM
      1 N         138.5165  140.5857  159.7627 N.pl3   1  UNL1       -0.3414
      2 C         138.8231  139.7991  161.0025 C.ar    1  UNL1        0.1432
      3 N         138.0225  138.5737  161.3304 N.ar    1  UNL1       -0.2265
      4 C         138.3291  137.7870  162.5703 C.ar    1  UNL1        0.1193
      5 C         139.4362  138.2258  163.4823 C.ar    1  UNL1        0.1021
      6 N         140.2367  139.4512  163.1544 N.ar    1  UNL1       -0.2865
      7 C         141.3789  140.1219  163.8583 C.ar    1  UNL1        0.1531
      8 N         141.7783  141.3231  163.0535 N.ar    1  UNL1       -0.2279
      9 C         140.8829  141.3947  161.8522 C.ar    1  UNL1        0.1036
     10 C         139.9301  140.2378  161.9145 C.ar    1  UNL1        0.1142
     11 H         137.7899  140.2977  159.1641 H       1  UNL1        0.1438
     12 H         139.0419  141.3899  159.5475 H       1  UNL1        0.1438
     13 C         140.9317  142.4397  160.7772 C.ar    1  UNL1        0.0467
     14 C         141.7725  142.2196  159.5548 C.ar    1  UNL1        0.0039
     15 C         141.8213  143.2646  158.4798 C.ar    1  UNL1        0.0047
     16 C         141.0292  144.5298  158.6273 C.ar    1  UNL1        0.0559
     17 C         140.1884  144.7500  159.8498 C.ar    1  UNL1        0.0342
     18 C         140.1396  143.7050  160.9248 C.ar    1  UNL1        0.1417
     19 F         139.2988  143.9252  162.1472 F       1  UNL1       -0.2041
     20 C         141.0780  145.5748  157.5523 C.2     1  UNL1        0.2506
     21 O         142.3320  146.3684  157.3343 O.2     1  UNL1       -0.2698
     22 N         139.8728  145.8262  156.6955 N.am    1  UNL1       -0.2658
     23 H         139.0497  145.3053  156.8386 H       1  UNL1        0.1566
     24 C         139.9216  146.8713  155.6205 C.ar    1  UNL1        0.1343
     25 C         139.2689  148.2039  155.8399 C.ar    1  UNL1        0.0383
     26 C         139.3177  149.2490  154.7650 C.ar    1  UNL1        0.0757
     27 C         140.0193  148.9614  153.4708 C.ar    1  UNL1        0.0246
     28 C         140.6721  147.6288  153.2514 C.ar    1  UNL1        0.1003
     29 N         140.6232  146.5837  154.3263 N.ar    1  UNL1       -0.2290
     30 C         138.6649  150.5815  154.9843 C.3     1  UNL1        0.4187
     31 F         138.0121  151.9141  155.2037 F       1  UNL1       -0.1659
     32 F         139.0783  151.0106  153.6078 F       1  UNL1       -0.1659
     33 F         138.2515  150.1524  156.3609 F       1  UNL1       -0.1659
     34 C         142.0108  139.6707  165.1417 C.3     1  UNL1        0.1875
     35 C         141.7459  140.4218  166.4128 C.3     1  UNL1        0.1099
     36 N         142.3778  139.9706  167.6962 N.3     1  UNL1       -0.2693
     37 C         143.2746  138.7682  167.7086 C.3     1  UNL1        0.1046
     38 C         143.5395  138.0172  166.4375 C.3     1  UNL1        0.1600
     39 O         142.9076  138.4684  165.1541 O.3     1  UNL1       -0.3458
     40 C         142.1128  140.7217  168.9673 C.3     1  UNL1        0.0627
     41 C         141.1513  140.1702  169.9779 C.3     1  UNL1        0.0481
     42 C         140.8864  140.9215  171.2489 C.3     1  UNL1        0.1435
     43 O         141.5830  142.2242  171.5094 O.3     1  UNL1       -0.3537
     44 C         142.5445  142.7756  170.4987 C.3     1  UNL1        0.1435
     45 C         142.8094  142.0244  169.2276 C.3     1  UNL1        0.0481
@<TRIPOS>BOND
     1     1     2    1
     2     2     3   ar
     3     3     4   ar
     4     4     5   ar
     5     5     6   ar
     6     6     7   ar
     7    34     7    1
     8    34    35    1
     9    35    36    1
    10    36    40    1
    11    40    41    1
    12    41    42    1
    13    42    43    1
    14    43    44    1
    15    44    45    1
    16    36    37    1
    17    37    38    1
    18    38    39    1
    19     7     8   ar
    20     8     9   ar
    21     9    13    1
    22    13    14   ar
    23    14    15   ar
    24    15    16   ar
    25    16    20    1
    26    20    21    2
    27    20    22   am
    28    22    24    1
    29    24    25   ar
    30    25    26   ar
    31    26    30    1
    32    30    31    1
    33    30    32    1
    34    30    33    1
    35    26    27   ar
    36    27    28   ar
    37    28    29   ar
    38    16    17   ar
    39    17    18   ar
    40    18    19    1
    41     9    10   ar
    42    10     2   ar
    43    10     6   ar
    44    39    34    1
    45    18    13   ar
    46    45    40    1
    47    29    24   ar
    48     1    11    1
    49     1    12    1
    50    22    23    1
@<TRIPOS>MOLECULE
*****
 45 50 0 0 0
SMALL
GASTEIGER

@<TRIPOS>ATOM
      1 N         142.3689  137.7953  160.0430 N.pl3   1  UNL1       -0.3414
      2 C         142.8062  138.1983  158.6659 C.ar    1  UNL1        0.1432
      3 N         142.6223  137.2548  157.5145 N.ar    1  UNL1       -0.2265
      4 C         143.0597  137.6578  156.1374 C.ar    1  UNL1        0.1193
      5 C         143.6810  139.0043  155.9118 C.ar    1  UNL1        0.1021
      6 N         143.8650  139.9478  157.0633 N.ar    1  UNL1       -0.2865
      7 C         144.4423  141.3297  157.1462 C.ar    1  UNL1        0.1531
      8 N         144.3617  141.7809  158.5745 N.ar    1  UNL1       -0.2279
      9 C         143.7346  140.6777  159.3743 C.ar    1  UNL1        0.1036
     10 C         143.4276  139.5448  158.4404 C.ar    1  UNL1        0.1142
     11 H         141.9610  136.9115  160.1910 H       1  UNL1        0.1438
     12 H         142.4896  138.4146  160.7988 H       1  UNL1        0.1438
     13 C         143.4623  140.7029  160.8492 C.ar    1  UNL1        0.0467
     14 C         144.4812  140.1648  161.8094 C.ar    1  UNL1        0.0039
     15 C         144.2089  140.1901  163.2842 C.ar    1  UNL1        0.0047
     16 C         142.9175  140.7535  163.7989 C.ar    1  UNL1        0.0559
     17 C         141.8985  141.2917  162.8388 C.ar    1  UNL1        0.0342
     18 C         142.1708  141.2664  161.3639 C.ar    1  UNL1        0.1417
     19 F         141.1518  141.8046  160.4037 F       1  UNL1       -0.2041
     20 C         142.6452  140.7788  165.2738 C.2     1  UNL1        0.2506
     21 O         142.4229  139.4952  166.0174 O.2     1  UNL1       -0.2698
     22 N         142.5951  142.0876  166.0049 N.am    1  UNL1       -0.2658
     23 H         142.7410  142.9300  165.5168 H       1  UNL1        0.1566
     24 C         142.3228  142.1127  167.4798 C.ar    1  UNL1        0.1343
     25 C         140.9745  141.7114  168.0004 C.ar    1  UNL1        0.0383
     26 C         140.7021  141.7365  169.4753 C.ar    1  UNL1        0.0757
     27 C         141.7780  142.1630  170.4294 C.ar    1  UNL1        0.0246
     28 C         143.1263  142.5644  169.9088 C.ar    1  UNL1        0.1003
     29 N         143.3987  142.5392  168.4340 N.ar    1  UNL1       -0.2290
     30 C         139.3538  141.3352  169.9959 C.3     1  UNL1        0.4187
     31 F         138.0055  140.9338  170.5165 F       1  UNL1       -0.1659
     32 F         139.2249  142.6615  170.6844 F       1  UNL1       -0.1659
     33 F         139.4828  140.0088  169.3073 F       1  UNL1       -0.1659
     34 C         145.0020  142.1215  156.0018 C.3     1  UNL1        0.1875
     35 C         146.4656  142.0457  155.6820 C.3     1  UNL1        0.1099
     36 N         147.0253  142.8375  154.5375 N.3     1  UNL1       -0.2693
     37 C         146.1214  143.7051  153.7128 C.3     1  UNL1        0.1046
     38 C         144.6578  143.7809  154.0325 C.3     1  UNL1        0.1600
     39 O         144.0982  142.9891  155.1770 O.3     1  UNL1       -0.3458
     40 C         148.4888  142.7617  154.2179 C.3     1  UNL1        0.0627
     41 C         149.0651  143.6220  153.1327 C.3     1  UNL1        0.0481
     42 C         150.5287  143.5461  152.8131 C.3     1  UNL1        0.1435
     43 O         151.4160  142.6098  153.5786 O.3     1  UNL1       -0.3537
     44 C         150.8397  141.7494  154.6638 C.3     1  UNL1        0.1435
     45 C         149.3761  141.8254  154.9834 C.3     1  UNL1        0.0481
@<TRIPOS>BOND
     1     1     2    1
     2     2     3   ar
     3     3     4   ar
     4     4     5   ar
     5     5     6   ar
     6     6     7   ar
     7    34     7    1
     8    34    35    1
     9    35    36    1
    10    36    40    1
    11    40    41    1
    12    41    42    1
    13    42    43    1
    14    43    44    1
    15    44    45    1
    16    36    37    1
    17    37    38    1
    18    38    39    1
    19     7     8   ar
    20     8     9   ar
    21     9    13    1
    22    13    14   ar
    23    14    15   ar
    24    15    16   ar
    25    16    20    1
    26    20    21    2
    27    20    22   am
    28    22    24    1
    29    24    25   ar
    30    25    26   ar
    31    26    30    1
    32    30    31    1
    33    30    32    1
    34    30    33    1
    35    26    27   ar
    36    27    28   ar
    37    28    29   ar
    38    16    17   ar
    39    17    18   ar
    40    18    19    1
    41     9    10   ar
    42    10     2   ar
    43    10     6   ar
    44    39    34    1
    45    18    13   ar
    46    45    40    1
    47    29    24   ar
    48     1    11    1
    49     1    12    1
    50    22    23    1
@<TRIPOS>MOLECULE
*****
 45 50 0 0 0
SMALL
GASTEIGER

@<TRIPOS>ATOM
      1 N         142.3273  140.2433  159.1048 N.pl3   1  UNL1       -0.3414
      2 C         142.0117  139.5257  160.3837 C.ar    1  UNL1        0.1432
      3 N         142.4937  138.1210  160.5941 N.ar    1  UNL1       -0.2265
      4 C         142.1781  137.4034  161.8729 C.ar    1  UNL1        0.1193
      5 C         141.3805  138.0905  162.9414 C.ar    1  UNL1        0.1021
      6 N         140.8985  139.4953  162.7309 N.ar    1  UNL1       -0.2865
      7 C         140.0983  140.4222  163.5972 C.ar    1  UNL1        0.1531
      8 N         139.9193  141.7127  162.8538 N.ar    1  UNL1       -0.2279
      9 C         140.6089  141.5833  161.5281 C.ar    1  UNL1        0.1036
     10 C         141.2141  140.2129  161.4521 C.ar    1  UNL1        0.1142
     11 H         142.8508  139.7923  158.4036 H       1  UNL1        0.1438
     12 H         142.0109  141.1653  158.9667 H       1  UNL1        0.1438
     13 C         140.6808  142.6390  160.4649 C.ar    1  UNL1        0.0467
     14 C         139.7033  142.6255  159.3272 C.ar    1  UNL1        0.0039
     15 C         139.7752  143.6812  158.2640 C.ar    1  UNL1        0.0047
     16 C         140.8246  144.7504  158.3385 C.ar    1  UNL1        0.0559
     17 C         141.8022  144.7639  159.4761 C.ar    1  UNL1        0.0342
     18 C         141.7303  143.7082  160.5393 C.ar    1  UNL1        0.1417
     19 F         142.7078  143.7217  161.6769 F       1  UNL1       -0.2041
     20 C         140.8965  145.8061  157.2753 C.2     1  UNL1        0.2506
     21 O         142.2211  146.3978  156.8944 O.2     1  UNL1       -0.2698
     22 N         139.6438  146.2699  156.5930 N.am    1  UNL1       -0.2658
     23 H         138.7744  145.8815  156.8430 H       1  UNL1        0.1566
     24 C         139.7158  147.3256  155.5298 C.ar    1  UNL1        0.1343
     25 C         139.1129  148.6774  155.7732 C.ar    1  UNL1        0.0383
     26 C         139.1848  149.7331  154.7101 C.ar    1  UNL1        0.0757
     27 C         139.8596  149.4370  153.4036 C.ar    1  UNL1        0.0246
     28 C         140.4624  148.0852  153.1602 C.ar    1  UNL1        0.1003
     29 N         140.3905  147.0295  154.2233 N.ar    1  UNL1       -0.2290
     30 C         138.5820  151.0849  154.9535 C.3     1  UNL1        0.4187
     31 F         137.9792  152.4367  155.1969 F       1  UNL1       -0.1659
     32 F         139.0243  151.5276  153.5902 F       1  UNL1       -0.1659
     33 F         138.1397  150.6422  156.3167 F       1  UNL1       -0.1659
     34 C         139.5698  140.1129  164.9666 C.3     1  UNL1        0.1875
     35 C         140.1293  140.8220  166.1642 C.3     1  UNL1        0.1099
     36 N         139.6009  140.5127  167.5336 N.3     1  UNL1       -0.2693
     37 C         138.5129  139.4945  167.7053 C.3     1  UNL1        0.1046
     38 C         137.9534  138.7855  166.5077 C.3     1  UNL1        0.1600
     39 O         138.4819  139.0947  165.1384 O.3     1  UNL1       -0.3458
     40 C         140.1604  141.2218  168.7311 C.3     1  UNL1        0.0627
     41 C         140.4467  142.6927  168.6659 C.3     1  UNL1        0.0481
     42 C         141.0062  143.4017  169.8635 C.3     1  UNL1        0.1435
     43 O         141.2795  142.6397  171.1264 O.3     1  UNL1       -0.3537
     44 C         140.9932  141.1688  171.1916 C.3     1  UNL1        0.1435
     45 C         140.4336  140.4598  169.9939 C.3     1  UNL1        0.0481
@<TRIPOS>BOND
     1     1     2    1
     2     2     3   ar
     3     3     4   ar
     4     4     5   ar
     5     5     6   ar
     6     6     7   ar
     7    34     7    1
     8    34    35    1
     9    35    36    1
    10    36    40    1
    11    40    41    1
    12    41    42    1
    13    42    43    1
    14    43    44    1
    15    44    45    1
    16    36    37    1
    17    37    38    1
    18    38    39    1
    19     7     8   ar
    20     8     9   ar
    21     9    13    1
    22    13    14   ar
    23    14    15   ar
    24    15    16   ar
    25    16    20    1
    26    20    21    2
    27    20    22   am
    28    22    24    1
    29    24    25   ar
    30    25    26   ar
    31    26    30    1
    32    30    31    1
    33    30    32    1
    34    30    33    1
    35    26    27   ar
    36    27    28   ar
    37    28    29   ar
    38    16    17   ar
    39    17    18   ar
    40    18    19    1
    41     9    10   ar
    42    10     2   ar
    43    10     6   ar
    44    39    34    1
    45    18    13   ar
    46    45    40    1
    47    29    24   ar
    48     1    11    1
    49     1    12    1
    50    22    23    1
@<TRIPOS>MOLECULE
*****
 45 50 0 0 0
SMALL
GASTEIGER

@<TRIPOS>ATOM
      1 N         140.1681  140.6294  158.2576 N.pl3   1  UNL1       -0.3414
      2 C         139.4151  140.3304  159.5200 C.ar    1  UNL1        0.1432
      3 N         137.9871  139.8765  159.4519 N.ar    1  UNL1       -0.2265
      4 C         137.2340  139.5776  160.7142 C.ar    1  UNL1        0.1193
      5 C         137.9091  139.7325  162.0448 C.ar    1  UNL1        0.1021
      6 N         139.3371  140.1864  162.1129 N.ar    1  UNL1       -0.2865
      7 C         140.2592  140.4283  163.2710 C.ar    1  UNL1        0.1531
      8 N         141.5821  140.8768  162.7244 N.ar    1  UNL1       -0.2279
      9 C         141.4776  140.9121  161.2285 C.ar    1  UNL1        0.1036
     10 C         140.0901  140.4854  160.8505 C.ar    1  UNL1        0.1142
     11 H         139.7250  140.5277  157.3844 H       1  UNL1        0.1438
     12 H         141.1054  140.9273  158.3024 H       1  UNL1        0.1438
     13 C         142.5689  141.3051  160.2774 C.ar    1  UNL1        0.0467
     14 C         143.3425  140.2487  159.5457 C.ar    1  UNL1        0.0039
     15 C         144.4339  140.6417  158.5946 C.ar    1  UNL1        0.0047
     16 C         144.7516  142.0911  158.3753 C.ar    1  UNL1        0.0559
     17 C         143.9780  143.1476  159.1069 C.ar    1  UNL1        0.0342
     18 C         142.8867  142.7546  160.0580 C.ar    1  UNL1        0.1417
     19 F         142.1131  143.8111  160.7897 F       1  UNL1       -0.2041
     20 C         145.8430  142.4841  157.4242 C.2     1  UNL1        0.2506
     21 O         147.0863  143.1449  157.9412 O.2     1  UNL1       -0.2698
     22 N         145.6910  142.2161  155.9562 N.am    1  UNL1       -0.2658
     23 H         144.8749  141.7823  155.6168 H       1  UNL1        0.1566
     24 C         146.7824  142.6091  155.0051 C.ar    1  UNL1        0.1343
     25 C         148.0444  141.8013  154.9368 C.ar    1  UNL1        0.0383
     26 C         149.1359  142.1942  153.9859 C.ar    1  UNL1        0.0757
     27 C         148.9652  143.3950  153.1032 C.ar    1  UNL1        0.0246
     28 C         147.7032  144.2028  153.1716 C.ar    1  UNL1        0.1003
     29 N         146.6117  143.8099  154.1225 N.ar    1  UNL1       -0.2290
     30 C         150.3979  141.3864  153.9175 C.3     1  UNL1        0.4187
     31 F         151.6600  140.5786  153.8492 F       1  UNL1       -0.1659
     32 F         150.1404  141.1068  152.4665 F       1  UNL1       -0.1659
     33 F         150.6555  141.6660  155.3686 F       1  UNL1       -0.1659
     34 C         139.9182  140.2526  164.7211 C.3     1  UNL1        0.1875
     35 C         140.5984  141.0955  165.7590 C.3     1  UNL1        0.1099
     36 N         140.2574  140.9197  167.2091 N.3     1  UNL1       -0.2693
     37 C         139.2363  139.9012  167.6214 C.3     1  UNL1        0.1046
     38 C         138.5562  139.0585  166.5836 C.3     1  UNL1        0.1600
     39 O         138.8972  139.2342  165.1335 O.3     1  UNL1       -0.3458
     40 C         140.9376  141.7625  168.2469 C.3     1  UNL1        0.0627
     41 C         142.3516  141.4628  168.6477 C.3     1  UNL1        0.0481
     42 C         143.0317  142.3056  169.6855 C.3     1  UNL1        0.1435
     43 O         142.2979  143.4483  170.3225 O.3     1  UNL1       -0.3537
     44 C         140.8838  143.7481  169.9217 C.3     1  UNL1        0.1435
     45 C         140.2037  142.9052  168.8839 C.3     1  UNL1        0.0481
@<TRIPOS>BOND
     1     1     2    1
     2     2     3   ar
     3     3     4   ar
     4     4     5   ar
     5     5     6   ar
     6     6     7   ar
     7    34     7    1
     8    34    35    1
     9    35    36    1
    10    36    40    1
    11    40    41    1
    12    41    42    1
    13    42    43    1
    14    43    44    1
    15    44    45    1
    16    36    37    1
    17    37    38    1
    18    38    39    1
    19     7     8   ar
    20     8     9   ar
    21     9    13    1
    22    13    14   ar
    23    14    15   ar
    24    15    16   ar
    25    16    20    1
    26    20    21    2
    27    20    22   am
    28    22    24    1
    29    24    25   ar
    30    25    26   ar
    31    26    30    1
    32    30    31    1
    33    30    32    1
    34    30    33    1
    35    26    27   ar
    36    27    28   ar
    37    28    29   ar
    38    16    17   ar
    39    17    18   ar
    40    18    19    1
    41     9    10   ar
    42    10     2   ar
    43    10     6   ar
    44    39    34    1
    45    18    13   ar
    46    45    40    1
    47    29    24   ar
    48     1    11    1
    49     1    12    1
    50    22    23    1
@<TRIPOS>MOLECULE
*****
 45 50 0 0 0
SMALL
GASTEIGER

@<TRIPOS>ATOM
      1 N         142.1261  138.7689  159.6908 N.pl3   1  UNL1       -0.3414
      2 C         141.4217  138.9982  158.3865 C.ar    1  UNL1        0.1432
      3 N         142.0653  138.5700  157.1011 N.ar    1  UNL1       -0.2265
      4 C         141.3609  138.7992  155.7968 C.ar    1  UNL1        0.1193
      5 C         140.0128  139.4566  155.7779 C.ar    1  UNL1        0.1021
      6 N         139.3692  139.8848  157.0633 N.ar    1  UNL1       -0.2865
      7 C         138.0578  140.5517  157.3557 C.ar    1  UNL1        0.1531
      8 N         137.9517  140.7347  158.8407 N.ar    1  UNL1       -0.2279
      9 C         139.1976  140.1809  159.4661 C.ar    1  UNL1        0.1036
     10 C         140.0736  139.6556  158.3676 C.ar    1  UNL1        0.1142
     11 H         143.0110  138.3374  159.7032 H       1  UNL1        0.1438
     12 H         141.7037  139.0500  160.5345 H       1  UNL1        0.1438
     13 C         139.5122  140.1565  160.9325 C.ar    1  UNL1        0.0467
     14 C         140.0302  141.3909  161.6091 C.ar    1  UNL1        0.0039
     15 C         140.3448  141.3666  163.0755 C.ar    1  UNL1        0.0047
     16 C         140.1415  140.1078  163.8654 C.ar    1  UNL1        0.0559
     17 C         139.6235  138.8733  163.1889 C.ar    1  UNL1        0.0342
     18 C         139.3088  138.8976  161.7225 C.ar    1  UNL1        0.1417
     19 F         138.7909  137.6631  161.0460 F       1  UNL1       -0.2041
     20 C         140.4561  140.0834  165.3319 C.2     1  UNL1        0.2506
     21 O         141.4337  139.0825  165.8726 O.2     1  UNL1       -0.2698
     22 N         139.7931  141.0599  166.2575 N.am    1  UNL1       -0.2658
     23 H         139.1514  141.7169  165.9026 H       1  UNL1        0.1566
     24 C         140.1078  141.0355  167.7240 C.ar    1  UNL1        0.1343
     25 C         141.1341  141.9738  168.2864 C.ar    1  UNL1        0.0383
     26 C         141.4489  141.9494  169.7528 C.ar    1  UNL1        0.0757
     27 C         140.7373  140.9868  170.6567 C.ar    1  UNL1        0.0246
     28 C         139.7110  140.0486  170.0942 C.ar    1  UNL1        0.1003
     29 N         139.3962  140.0729  168.6278 N.ar    1  UNL1       -0.2290
     30 C         142.4752  142.8877  170.3153 C.3     1  UNL1        0.4187
     31 F         143.5014  143.8260  170.8778 F       1  UNL1       -0.1659
     32 F         141.4753  144.0052  170.2756 F       1  UNL1       -0.1659
     33 F         143.4750  141.7702  170.3551 F       1  UNL1       -0.1659
     34 C         137.0325  140.9634  156.3412 C.3     1  UNL1        0.1875
     35 C         135.5854  140.6355  156.5617 C.3     1  UNL1        0.1099
     36 N         134.5601  141.0472  155.5472 N.3     1  UNL1       -0.2693
     37 C         134.9818  141.7868  154.3122 C.3     1  UNL1        0.1046
     38 C         136.4288  142.1147  154.0918 C.3     1  UNL1        0.1600
     39 O         137.4541  141.7030  155.1063 O.3     1  UNL1       -0.3458
     40 C         133.1131  140.7192  155.7677 C.3     1  UNL1        0.0627
     41 C         132.0473  141.5932  155.1760 C.3     1  UNL1        0.0481
     42 C         130.6003  141.2652  155.3965 C.3     1  UNL1        0.1435
     43 O         130.2191  140.0631  156.2088 O.3     1  UNL1       -0.3537
     44 C         131.2849  139.1891  156.8005 C.3     1  UNL1        0.1435
     45 C         132.7319  139.5171  156.5799 C.3     1  UNL1        0.0481
@<TRIPOS>BOND
     1     1     2    1
     2     2     3   ar
     3     3     4   ar
     4     4     5   ar
     5     5     6   ar
     6     6     7   ar
     7    34     7    1
     8    34    35    1
     9    35    36    1
    10    36    40    1
    11    40    41    1
    12    41    42    1
    13    42    43    1
    14    43    44    1
    15    44    45    1
    16    36    37    1
    17    37    38    1
    18    38    39    1
    19     7     8   ar
    20     8     9   ar
    21     9    13    1
    22    13    14   ar
    23    14    15   ar
    24    15    16   ar
    25    16    20    1
    26    20    21    2
    27    20    22   am
    28    22    24    1
    29    24    25   ar
    30    25    26   ar
    31    26    30    1
    32    30    31    1
    33    30    32    1
    34    30    33    1
    35    26    27   ar
    36    27    28   ar
    37    28    29   ar
    38    16    17   ar
    39    17    18   ar
    40    18    19    1
    41     9    10   ar
    42    10     2   ar
    43    10     6   ar
    44    39    34    1
    45    18    13   ar
    46    45    40    1
    47    29    24   ar
    48     1    11    1
    49     1    12    1
    50    22    23    1
