@<TRIPOS>MOLECULE
*****
 40 44 0 0 0
SMALL
GASTEIGER

@<TRIPOS>ATOM
      1 N         139.3547  143.2774  161.3606 N.am    1  UNL1       -0.3018
      2 C         138.1583  143.1794  162.2601 C.2     1  UNL1        0.2425
      3 O         137.3846  141.8970  162.3420 O.2     1  UNL1       -0.2733
      4 H         139.8625  144.1192  161.3068 H       1  UNL1        0.1495
      5 N         140.3749  140.4180  159.3866 N.3     1  UNL1       -0.2711
      6 C         140.0947  141.8624  159.0951 C.3     1  UNL1        0.0933
      7 C         139.7773  142.0930  160.5430 C.3     1  UNL1        0.1035
      8 C         140.0575  140.6485  160.8344 C.3     1  UNL1        0.0933
      9 C         141.6427  136.8646  156.9337 C.3     1  UNL1        0.0225
     10 C         140.2255  137.3522  156.8710 C.3     1  UNL1        0.0057
     11 C         139.8030  138.5366  157.6886 C.3     1  UNL1        0.0163
     12 C         140.7975  139.2335  158.5690 C.3     1  UNL1        0.0576
     13 C         142.2147  138.7460  158.6317 C.3     1  UNL1        0.0163
     14 C         142.6373  137.5616  157.8141 C.3     1  UNL1        0.0057
     15 C         143.3959  133.4601  155.8919 C.ar    1  UNL1        0.0476
     16 C         142.9100  133.3113  154.4806 C.ar    1  UNL1        0.0145
     17 C         142.0017  134.3470  153.8870 C.ar    1  UNL1        0.0009
     18 C         141.5793  135.5314  154.7048 C.ar    1  UNL1       -0.0042
     19 C         142.0652  135.6802  156.1161 C.ar    1  UNL1       -0.0213
     20 C         142.9735  134.6445  156.7097 C.ar    1  UNL1        0.0102
     21 C         144.8756  132.6255  157.8577 C.3     1  UNL1        0.1122
     22 N         144.3042  132.4244  156.4854 N.pl3   1  UNL1       -0.3041
     23 C         144.6413  131.1875  155.7067 C.3     1  UNL1        0.1122
     24 C         137.7357  144.3638  163.0777 C.3     1  UNL1        0.1747
     25 N         138.6134  144.8602  164.1883 N.pl3   1  UNL1       -0.3093
     26 H         138.2351  145.4270  164.8989 H       1  UNL1        0.1487
     27 C         140.0675  144.4929  164.2164 C.ar    1  UNL1        0.1500
     28 N         141.1470  145.1014  163.3712 N.ar    1  UNL1       -0.1544
     29 N         142.4440  144.4372  163.7270 N.ar    1  UNL1       -0.2476
     30 C         143.7838  144.7390  163.1237 C.3     1  UNL1        0.1537
     31 C         142.1661  143.4181  164.7920 C.ar    1  UNL1        0.0807
     32 C         143.0606  142.4633  165.5255 C.ar    1  UNL1        0.0188
     33 C         142.4864  141.5429  166.5614 C.ar    1  UNL1        0.0054
     34 C         141.0176  141.5773  166.8638 C.ar    1  UNL1        0.0716
     35 C         140.1231  142.5321  166.1304 C.ar    1  UNL1        0.0082
     36 C         140.6973  143.4525  165.0945 C.ar    1  UNL1        0.0503
     37 C         140.4434  140.6568  167.8997 C.3     1  UNL1        0.4186
     38 F         139.8693  139.7364  168.9356 F       1  UNL1       -0.1659
     39 F         140.0906  141.8383  168.7540 F       1  UNL1       -0.1659
     40 F         140.7963  139.4754  167.0455 F       1  UNL1       -0.1659
@<TRIPOS>BOND
     1    21    22    1
     2    22    23    1
     3    22    15    1
     4    15    16   ar
     5    16    17   ar
     6    17    18   ar
     7    18    19   ar
     8     9    19    1
     9     9    10    1
    10    10    11    1
    11    11    12    1
    12    12     5    1
    13     5     6    1
    14     6     7    1
    15     7     1    1
    16     1     2   am
    17     2     3    2
    18     2    24    1
    19    24    25    1
    20    25    27    1
    21    27    28   ar
    22    28    29   ar
    23    29    30    1
    24    29    31   ar
    25    31    32   ar
    26    32    33   ar
    27    33    34   ar
    28    34    37    1
    29    37    38    1
    30    37    39    1
    31    37    40    1
    32    34    35   ar
    33    35    36   ar
    34     7     8    1
    35    12    13    1
    36    13    14    1
    37    19    20   ar
    38    20    15   ar
    39    14     9    1
    40     8     5    1
    41    36    27   ar
    42    36    31   ar
    43     1     4    1
    44    25    26    1
@<TRIPOS>MOLECULE
*****
 40 44 0 0 0
SMALL
GASTEIGER

@<TRIPOS>ATOM
      1 N         139.3248  143.0104  161.2019 N.am    1  UNL1       -0.3018
      2 C         138.1358  142.9079  162.1106 C.2     1  UNL1        0.2425
      3 O         137.3569  141.6282  162.1851 O.2     1  UNL1       -0.2733
      4 H         139.8361  143.8503  161.1530 H       1  UNL1        0.1495
      5 N         140.3147  140.1683  159.1878 N.3     1  UNL1       -0.2711
      6 C         140.0598  141.6217  158.9185 C.3     1  UNL1        0.0933
      7 C         139.7348  141.8331  160.3677 C.3     1  UNL1        0.1035
      8 C         139.9897  140.3797  160.6368 C.3     1  UNL1        0.0933
      9 C         141.5447  136.6365  156.6851 C.3     1  UNL1        0.0225
     10 C         142.5325  137.2780  157.6140 C.3     1  UNL1        0.0057
     11 C         142.1225  138.4552  158.4482 C.3     1  UNL1        0.0163
     12 C         140.7247  138.9910  158.3535 C.3     1  UNL1        0.0576
     13 C         139.7369  138.3496  157.4246 C.3     1  UNL1        0.0163
     14 C         140.1469  137.1723  156.5904 C.3     1  UNL1        0.0057
     15 C         143.2794  133.2397  155.5885 C.ar    1  UNL1        0.0476
     16 C         142.7750  133.1048  154.1824 C.ar    1  UNL1        0.0145
     17 C         141.8605  134.1471  153.6104 C.ar    1  UNL1        0.0009
     18 C         141.4504  135.3244  154.4447 C.ar    1  UNL1       -0.0042
     19 C         141.9548  135.4593  155.8509 C.ar    1  UNL1       -0.0213
     20 C         142.8693  134.4169  156.4228 C.ar    1  UNL1        0.0102
     21 C         144.7990  132.3940  157.5188 C.3     1  UNL1        0.1122
     22 N         144.1939  132.1973  156.1604 N.pl3   1  UNL1       -0.3041
     23 C         144.5034  130.9581  155.3739 C.3     1  UNL1        0.1122
     24 C         137.7258  144.0852  162.9448 C.3     1  UNL1        0.1747
     25 N         138.3537  144.3069  164.2890 N.pl3   1  UNL1       -0.3093
     26 H         137.9139  144.8924  164.9472 H       1  UNL1        0.1487
     27 C         139.6514  143.6367  164.6304 C.ar    1  UNL1        0.1500
     28 N         141.0196  144.2296  164.4674 N.ar    1  UNL1       -0.1544
     29 N         142.0226  143.2152  164.9310 N.ar    1  UNL1       -0.2476
     30 C         143.5123  143.3899  164.9430 C.3     1  UNL1        0.1537
     31 C         141.2743  141.9953  165.3805 C.ar    1  UNL1        0.0807
     32 C         141.7381  140.6810  165.9350 C.ar    1  UNL1        0.0188
     33 C         140.7363  139.6272  166.3037 C.ar    1  UNL1        0.0054
     34 C         139.2709  139.8877  166.1179 C.ar    1  UNL1        0.0716
     35 C         138.8071  141.2020  165.5635 C.ar    1  UNL1        0.0082
     36 C         139.8089  142.2558  165.1948 C.ar    1  UNL1        0.0503
     37 C         138.2691  138.8338  166.4867 C.3     1  UNL1        0.4186
     38 F         137.2674  137.7800  166.8554 F       1  UNL1       -0.1659
     39 F         138.2185  138.3818  165.0573 F       1  UNL1       -0.1659
     40 F         138.3197  139.2859  167.9160 F       1  UNL1       -0.1659
@<TRIPOS>BOND
     1    21    22    1
     2    22    23    1
     3    22    15    1
     4    15    16   ar
     5    16    17   ar
     6    17    18   ar
     7    18    19   ar
     8     9    19    1
     9     9    10    1
    10    10    11    1
    11    11    12    1
    12    12     5    1
    13     5     6    1
    14     6     7    1
    15     7     1    1
    16     1     2   am
    17     2     3    2
    18     2    24    1
    19    24    25    1
    20    25    27    1
    21    27    28   ar
    22    28    29   ar
    23    29    30    1
    24    29    31   ar
    25    31    32   ar
    26    32    33   ar
    27    33    34   ar
    28    34    37    1
    29    37    38    1
    30    37    39    1
    31    37    40    1
    32    34    35   ar
    33    35    36   ar
    34     7     8    1
    35    12    13    1
    36    13    14    1
    37    19    20   ar
    38    20    15   ar
    39    14     9    1
    40     8     5    1
    41    36    27   ar
    42    36    31   ar
    43     1     4    1
    44    25    26    1
@<TRIPOS>MOLECULE
*****
 40 44 0 0 0
SMALL
GASTEIGER

@<TRIPOS>ATOM
      1 N         143.1079  143.8184  161.0035 N.am    1  UNL1       -0.3018
      2 C         143.6838  143.8458  162.3882 C.2     1  UNL1        0.2425
      3 O         144.2455  142.5928  162.9919 O.2     1  UNL1       -0.2733
      4 H         142.7393  144.6408  160.6073 H       1  UNL1        0.1495
      5 N         143.0739  140.7269  159.1178 N.3     1  UNL1       -0.2711
      6 C         144.1445  141.6263  159.6608 C.3     1  UNL1        0.0933
      7 C         143.0938  142.5378  160.2224 C.3     1  UNL1        0.1035
      8 C         142.0233  141.6384  159.6794 C.3     1  UNL1        0.0933
      9 C         143.0315  136.8853  156.7746 C.3     1  UNL1        0.0225
     10 C         143.3867  138.1745  156.0951 C.3     1  UNL1        0.0057
     11 C         143.4008  139.4550  156.8761 C.3     1  UNL1        0.0163
     12 C         143.0598  139.4463  158.3368 C.3     1  UNL1        0.0576
     13 C         142.7046  138.1572  159.0164 C.3     1  UNL1        0.0163
     14 C         142.6904  136.8766  158.2353 C.3     1  UNL1        0.0057
     15 C         143.7641  133.1324  155.7122 C.ar    1  UNL1        0.0476
     16 C         142.9890  133.0440  154.4310 C.ar    1  UNL1        0.0145
     17 C         142.2281  134.2360  153.9310 C.ar    1  UNL1        0.0009
     18 C         142.2423  135.5165  154.7123 C.ar    1  UNL1       -0.0042
     19 C         143.0174  135.6049  155.9935 C.ar    1  UNL1       -0.0213
     20 C         143.7783  134.4128  156.4934 C.ar    1  UNL1        0.0102
     21 C         145.2165  131.9956  157.5421 C.3     1  UNL1        0.1122
     22 N         144.5250  131.9403  156.2121 N.pl3   1  UNL1       -0.3041
     23 C         144.5944  130.6928  155.3821 C.3     1  UNL1        0.1122
     24 C         143.6980  145.1263  163.1693 C.3     1  UNL1        0.1747
     25 N         142.4631  145.5782  163.8912 N.pl3   1  UNL1       -0.3093
     26 H         142.4467  146.4561  164.3366 H       1  UNL1        0.1487
     27 C         141.2532  144.6926  163.9344 C.ar    1  UNL1        0.1500
     28 N         140.0274  144.8322  163.0812 N.ar    1  UNL1       -0.1544
     29 N         139.0734  143.7378  163.4579 N.ar    1  UNL1       -0.2476
     30 C         137.7207  143.5009  162.8546 C.3     1  UNL1        0.1537
     31 C         139.7095  142.9218  164.5440 C.ar    1  UNL1        0.0807
     32 C         139.2360  141.7176  165.3028 C.ar    1  UNL1        0.0188
     33 C         140.1098  141.1036  166.3561 C.ar    1  UNL1        0.0054
     34 C         141.4570  141.6937  166.6506 C.ar    1  UNL1        0.0716
     35 C         141.9305  142.8979  165.8918 C.ar    1  UNL1        0.0082
     36 C         141.0567  143.5119  164.8385 C.ar    1  UNL1        0.0503
     37 C         142.3308  141.0797  167.7039 C.3     1  UNL1        0.4186
     38 F         143.2045  140.4657  168.7572 F       1  UNL1       -0.1659
     39 F         141.6656  139.7536  167.4828 F       1  UNL1       -0.1659
     40 F         142.9960  142.4057  167.9251 F       1  UNL1       -0.1659
@<TRIPOS>BOND
     1    21    22    1
     2    22    23    1
     3    22    15    1
     4    15    16   ar
     5    16    17   ar
     6    17    18   ar
     7    18    19   ar
     8     9    19    1
     9     9    10    1
    10    10    11    1
    11    11    12    1
    12    12     5    1
    13     5     6    1
    14     6     7    1
    15     7     1    1
    16     1     2   am
    17     2     3    2
    18     2    24    1
    19    24    25    1
    20    25    27    1
    21    27    28   ar
    22    28    29   ar
    23    29    30    1
    24    29    31   ar
    25    31    32   ar
    26    32    33   ar
    27    33    34   ar
    28    34    37    1
    29    37    38    1
    30    37    39    1
    31    37    40    1
    32    34    35   ar
    33    35    36   ar
    34     7     8    1
    35    12    13    1
    36    13    14    1
    37    19    20   ar
    38    20    15   ar
    39    14     9    1
    40     8     5    1
    41    36    27   ar
    42    36    31   ar
    43     1     4    1
    44    25    26    1
@<TRIPOS>MOLECULE
*****
 40 44 0 0 0
SMALL
GASTEIGER

@<TRIPOS>ATOM
      1 N         139.6912  143.4824  159.1527 N.am    1  UNL1       -0.3018
      2 C         140.7412  144.4818  159.5380 C.2     1  UNL1        0.2425
      3 O         142.1932  144.1511  159.3587 O.2     1  UNL1       -0.2733
      4 H         138.7381  143.6994  159.2704 H       1  UNL1        0.1495
      5 N         140.6619  140.2707  157.7899 N.3     1  UNL1       -0.2711
      6 C         140.0989  140.7413  159.0982 C.3     1  UNL1        0.0933
      7 C         140.0933  142.1521  158.5882 C.3     1  UNL1        0.1035
      8 C         140.6562  141.6814  157.2800 C.3     1  UNL1        0.0933
      9 C         141.8682  136.2799  156.0963 C.3     1  UNL1        0.0225
     10 C         142.8508  137.0836  156.8955 C.3     1  UNL1        0.0057
     11 C         142.4487  138.4138  157.4600 C.3     1  UNL1        0.0163
     12 C         141.0640  138.9404  157.2254 C.3     1  UNL1        0.0576
     13 C         140.0813  138.1368  156.4263 C.3     1  UNL1        0.0163
     14 C         140.4834  136.8066  155.8617 C.3     1  UNL1        0.0057
     15 C         143.6259  132.7414  155.7224 C.ar    1  UNL1        0.0476
     16 C         143.0747  132.2892  154.4027 C.ar    1  UNL1        0.0145
     17 C         142.1213  133.1671  153.6475 C.ar    1  UNL1        0.0009
     18 C         141.7192  134.4974  154.2121 C.ar    1  UNL1       -0.0042
     19 C         142.2704  134.9497  155.5319 C.ar    1  UNL1       -0.0213
     20 C         143.2237  134.0717  156.2870 C.ar    1  UNL1        0.0102
     21 C         144.9906  130.5383  155.9074 C.3     1  UNL1        0.1122
     22 N         144.5792  131.8634  156.4775 N.pl3   1  UNL1       -0.3041
     23 C         145.1212  132.3105  157.8028 C.3     1  UNL1        0.1122
     24 C         140.3391  145.8121  160.1025 C.3     1  UNL1        0.1747
     25 N         139.7408  145.8943  161.4756 N.pl3   1  UNL1       -0.3093
     26 H         139.5572  146.7725  161.8809 H       1  UNL1        0.1487
     27 C         139.4222  144.6383  162.2313 C.ar    1  UNL1        0.1500
     28 N         138.1530  143.8456  162.1288 N.ar    1  UNL1       -0.1544
     29 N         138.2633  142.6719  163.0563 N.ar    1  UNL1       -0.2476
     30 C         137.2195  141.6162  163.2705 C.3     1  UNL1        0.1537
     31 C         139.6008  142.7392  163.7320 C.ar    1  UNL1        0.0807
     32 C         140.2590  141.8509  164.7457 C.ar    1  UNL1        0.0188
     33 C         141.6335  142.1779  165.2495 C.ar    1  UNL1        0.0054
     34 C         142.3497  143.3933  164.7397 C.ar    1  UNL1        0.0716
     35 C         141.6915  144.2816  163.7260 C.ar    1  UNL1        0.0082
     36 C         140.3171  143.9545  163.2222 C.ar    1  UNL1        0.0503
     37 C         143.7243  143.7203  165.2435 C.3     1  UNL1        0.4186
     38 F         145.0987  144.0472  165.7474 F       1  UNL1       -0.1659
     39 F         143.8031  144.8694  164.2828 F       1  UNL1       -0.1659
     40 F         143.6454  142.5711  166.2043 F       1  UNL1       -0.1659
@<TRIPOS>BOND
     1    21    22    1
     2    22    23    1
     3    22    15    1
     4    15    16   ar
     5    16    17   ar
     6    17    18   ar
     7    18    19   ar
     8     9    19    1
     9     9    10    1
    10    10    11    1
    11    11    12    1
    12    12     5    1
    13     5     6    1
    14     6     7    1
    15     7     1    1
    16     1     2   am
    17     2     3    2
    18     2    24    1
    19    24    25    1
    20    25    27    1
    21    27    28   ar
    22    28    29   ar
    23    29    30    1
    24    29    31   ar
    25    31    32   ar
    26    32    33   ar
    27    33    34   ar
    28    34    37    1
    29    37    38    1
    30    37    39    1
    31    37    40    1
    32    34    35   ar
    33    35    36   ar
    34     7     8    1
    35    12    13    1
    36    13    14    1
    37    19    20   ar
    38    20    15   ar
    39    14     9    1
    40     8     5    1
    41    36    27   ar
    42    36    31   ar
    43     1     4    1
    44    25    26    1
@<TRIPOS>MOLECULE
*****
 40 44 0 0 0
SMALL
GASTEIGER

@<TRIPOS>ATOM
      1 N         140.4570  142.6442  161.4518 N.am    1  UNL1       -0.3018
      2 C         139.1189  143.3176  161.5284 C.2     1  UNL1        0.2425
      3 O         137.9909  142.8459  160.6595 O.2     1  UNL1       -0.2733
      4 H         141.1973  142.9538  162.0222 H       1  UNL1        0.1495
      5 N         140.9642  139.8793  159.1688 N.3     1  UNL1       -0.2711
      6 C         141.0285  141.3736  159.0557 C.3     1  UNL1        0.0933
      7 C         140.6671  141.4989  160.5062 C.3     1  UNL1        0.1035
      8 C         140.6029  140.0046  160.6192 C.3     1  UNL1        0.0933
      9 C         141.5945  136.4434  156.3319 C.3     1  UNL1        0.0225
     10 C         140.2954  137.1934  156.3248 C.3     1  UNL1        0.0057
     11 C         140.0854  138.3386  157.2703 C.3     1  UNL1        0.0163
     12 C         141.1743  138.7340  158.2232 C.3     1  UNL1        0.0576
     13 C         142.4734  137.9841  158.2303 C.3     1  UNL1        0.0163
     14 C         142.6835  136.8388  157.2847 C.3     1  UNL1        0.0057
     15 C         142.5499  132.8479  154.9502 C.ar    1  UNL1        0.0476
     16 C         142.2244  133.0078  153.4947 C.ar    1  UNL1        0.0145
     17 C         141.6889  134.3129  152.9849 C.ar    1  UNL1        0.0009
     18 C         141.4789  135.4581  153.9307 C.ar    1  UNL1       -0.0042
     19 C         141.8045  135.2982  155.3863 C.ar    1  UNL1       -0.0213
     20 C         142.3400  133.9931  155.8959 C.ar    1  UNL1        0.0102
     21 C         143.6246  130.5261  154.4977 C.3     1  UNL1        0.1122
     22 N         143.0854  131.5427  155.4599 N.pl3   1  UNL1       -0.3041
     23 C         143.0818  131.2542  156.9318 C.3     1  UNL1        0.1122
     24 C         138.9088  144.4629  162.4741 C.3     1  UNL1        0.1747
     25 N         138.5206  144.1978  163.8986 N.pl3   1  UNL1       -0.3093
     26 H         138.0480  144.8887  164.4167 H       1  UNL1        0.1487
     27 C         138.8525  142.8800  164.5336 C.ar    1  UNL1        0.1500
     28 N         137.9094  141.7286  164.7198 N.ar    1  UNL1       -0.1544
     29 N         138.6599  140.6193  165.3952 N.ar    1  UNL1       -0.2476
     30 C         138.1014  139.2793  165.7730 C.3     1  UNL1        0.1537
     31 C         140.0669  141.0850  165.6263 C.ar    1  UNL1        0.0807
     32 C         141.2550  140.4174  166.2529 C.ar    1  UNL1        0.0188
     33 C         142.5622  141.1470  166.3470 C.ar    1  UNL1        0.0054
     34 C         142.6812  142.5443  165.8145 C.ar    1  UNL1        0.0716
     35 C         141.4931  143.2119  165.1879 C.ar    1  UNL1        0.0082
     36 C         140.1859  142.4823  165.0938 C.ar    1  UNL1        0.0503
     37 C         143.9885  143.2739  165.9086 C.3     1  UNL1        0.4186
     38 F         145.2957  144.0034  166.0027 F       1  UNL1       -0.1659
     39 F         143.8762  143.6615  164.4639 F       1  UNL1       -0.1659
     40 F         144.1008  142.8862  167.3532 F       1  UNL1       -0.1659
@<TRIPOS>BOND
     1    21    22    1
     2    22    23    1
     3    22    15    1
     4    15    16   ar
     5    16    17   ar
     6    17    18   ar
     7    18    19   ar
     8     9    19    1
     9     9    10    1
    10    10    11    1
    11    11    12    1
    12    12     5    1
    13     5     6    1
    14     6     7    1
    15     7     1    1
    16     1     2   am
    17     2     3    2
    18     2    24    1
    19    24    25    1
    20    25    27    1
    21    27    28   ar
    22    28    29   ar
    23    29    30    1
    24    29    31   ar
    25    31    32   ar
    26    32    33   ar
    27    33    34   ar
    28    34    37    1
    29    37    38    1
    30    37    39    1
    31    37    40    1
    32    34    35   ar
    33    35    36   ar
    34     7     8    1
    35    12    13    1
    36    13    14    1
    37    19    20   ar
    38    20    15   ar
    39    14     9    1
    40     8     5    1
    41    36    27   ar
    42    36    31   ar
    43     1     4    1
    44    25    26    1
@<TRIPOS>MOLECULE
*****
 40 44 0 0 0
SMALL
GASTEIGER

@<TRIPOS>ATOM
      1 N         141.4982  142.9443  158.0614 N.am    1  UNL1       -0.3018
      2 C         140.5509  143.3956  159.1333 C.2     1  UNL1        0.2425
      3 O         139.6866  142.3943  159.8407 O.2     1  UNL1       -0.2733
      4 H         142.0655  143.6015  157.5971 H       1  UNL1        0.1495
      5 N         141.6985  139.4371  157.1816 N.3     1  UNL1       -0.2711
      6 C         141.8169  140.2194  158.4560 C.3     1  UNL1        0.0933
      7 C         141.5812  141.4916  157.6969 C.3     1  UNL1        0.1035
      8 C         141.4627  140.7093  156.4226 C.3     1  UNL1        0.0933
      9 C         141.9473  135.0791  156.0882 C.3     1  UNL1        0.0225
     10 C         142.9365  135.6689  157.0493 C.3     1  UNL1        0.0057
     11 C         142.8536  137.1215  157.4137 C.3     1  UNL1        0.0163
     12 C         141.7814  137.9844  156.8171 C.3     1  UNL1        0.0576
     13 C         140.7923  137.3946  155.8560 C.3     1  UNL1        0.0163
     14 C         140.8752  135.9420  155.4916 C.3     1  UNL1        0.0057
     15 C         142.8450  131.2168  156.2532 C.ar    1  UNL1        0.0476
     16 C         142.1964  130.7211  154.9948 C.ar    1  UNL1        0.0145
     17 C         141.4647  131.6779  154.1009 C.ar    1  UNL1        0.0009
     18 C         141.3817  133.1306  154.4654 C.ar    1  UNL1       -0.0042
     19 C         142.0304  133.6264  155.7238 C.ar    1  UNL1       -0.0213
     20 C         142.7620  132.6695  156.6177 C.ar    1  UNL1        0.0102
     21 C         143.1505  128.8233  157.2166 C.3     1  UNL1        0.1122
     22 N         143.5766  130.2599  157.1470 N.pl3   1  UNL1       -0.3041
     23 C         144.7344  130.7395  157.9713 C.3     1  UNL1        0.1122
     24 C         140.4680  144.8483  159.4977 C.3     1  UNL1        0.1747
     25 N         141.4802  145.4469  160.4290 N.pl3   1  UNL1       -0.3093
     26 H         141.7857  146.3731  160.2946 H       1  UNL1        0.1487
     27 C         142.0270  144.6343  161.5651 C.ar    1  UNL1        0.1500
     28 N         143.3812  143.9914  161.6176 N.ar    1  UNL1       -0.1544
     29 N         143.5066  143.2817  162.9331 N.ar    1  UNL1       -0.2476
     30 C         144.6994  142.5042  163.4053 C.3     1  UNL1        0.1537
     31 C         142.2300  143.4859  163.6937 C.ar    1  UNL1        0.0807
     32 C         141.7820  143.0187  165.0468 C.ar    1  UNL1        0.0188
     33 C         140.4196  143.3875  165.5545 C.ar    1  UNL1        0.0054
     34 C         139.5051  144.2235  164.7090 C.ar    1  UNL1        0.0716
     35 C         139.9531  144.6907  163.3558 C.ar    1  UNL1        0.0082
     36 C         141.3155  144.3219  162.8482 C.ar    1  UNL1        0.0503
     37 C         138.1426  144.5923  165.2167 C.3     1  UNL1        0.4186
     38 F         136.7802  144.9611  165.7244 F       1  UNL1       -0.1659
     39 F         137.5154  143.7557  164.1412 F       1  UNL1       -0.1659
     40 F         138.7699  145.4288  166.2922 F       1  UNL1       -0.1659
@<TRIPOS>BOND
     1    21    22    1
     2    22    23    1
     3    22    15    1
     4    15    16   ar
     5    16    17   ar
     6    17    18   ar
     7    18    19   ar
     8     9    19    1
     9     9    10    1
    10    10    11    1
    11    11    12    1
    12    12     5    1
    13     5     6    1
    14     6     7    1
    15     7     1    1
    16     1     2   am
    17     2     3    2
    18     2    24    1
    19    24    25    1
    20    25    27    1
    21    27    28   ar
    22    28    29   ar
    23    29    30    1
    24    29    31   ar
    25    31    32   ar
    26    32    33   ar
    27    33    34   ar
    28    34    37    1
    29    37    38    1
    30    37    39    1
    31    37    40    1
    32    34    35   ar
    33    35    36   ar
    34     7     8    1
    35    12    13    1
    36    13    14    1
    37    19    20   ar
    38    20    15   ar
    39    14     9    1
    40     8     5    1
    41    36    27   ar
    42    36    31   ar
    43     1     4    1
    44    25    26    1
@<TRIPOS>MOLECULE
*****
 40 44 0 0 0
SMALL
GASTEIGER

@<TRIPOS>ATOM
      1 N         137.6826  140.1075  157.3507 N.am    1  UNL1       -0.3018
      2 C         137.3080  141.4313  156.7532 C.2     1  UNL1        0.2425
      3 O         137.4686  142.6886  157.5552 O.2     1  UNL1       -0.2733
      4 H         137.5772  139.2822  156.8243 H       1  UNL1        0.1495
      5 N         138.9746  139.9470  160.7299 N.3     1  UNL1       -0.2711
      6 C         139.5866  139.9793  159.3608 C.3     1  UNL1        0.0933
      7 C         138.2177  140.0410  158.7504 C.3     1  UNL1        0.1035
      8 C         137.6058  140.0086  160.1195 C.3     1  UNL1        0.0933
      9 C         140.5801  139.7476  164.9291 C.3     1  UNL1        0.0225
     10 C         139.5322  138.7728  164.4796 C.3     1  UNL1        0.0057
     11 C         138.9971  138.8393  163.0799 C.3     1  UNL1        0.0163
     12 C         139.5098  139.8805  162.1296 C.3     1  UNL1        0.0576
     13 C         140.5576  140.8552  162.5791 C.3     1  UNL1        0.0163
     14 C         141.0927  140.7888  163.9788 C.3     1  UNL1        0.0057
     15 C         140.8387  140.1549  168.8683 C.ar    1  UNL1        0.0476
     16 C         142.1855  139.5477  169.1282 C.ar    1  UNL1        0.0145
     17 C         142.9971  139.0072  167.9885 C.ar    1  UNL1        0.0009
     18 C         142.4619  139.0738  166.5888 C.ar    1  UNL1       -0.0042
     19 C         141.1151  139.6810  166.3288 C.ar    1  UNL1       -0.0213
     20 C         140.3035  140.2216  167.4686 C.ar    1  UNL1        0.0102
     21 C         140.6590  141.6188  171.0072 C.3     1  UNL1        0.1122
     22 N         140.0271  140.6955  170.0080 N.pl3   1  UNL1       -0.3041
     23 C         138.5836  140.3128  170.1487 C.3     1  UNL1        0.1122
     24 C         136.7729  141.4978  155.3534 C.3     1  UNL1        0.1747
     25 N         135.3040  141.6939  155.1206 N.pl3   1  UNL1       -0.3093
     26 H         134.9946  142.3419  154.4470 H       1  UNL1        0.1487
     27 C         134.3066  140.9029  155.9140 C.ar    1  UNL1        0.1500
     28 N         134.6268  139.8685  156.9521 N.ar    1  UNL1       -0.1544
     29 N         133.3320  139.3337  157.4882 N.ar    1  UNL1       -0.2476
     30 C         133.1836  138.2801  158.5455 C.3     1  UNL1        0.1537
     31 C         132.2116  140.0375  156.7815 C.ar    1  UNL1        0.0807
     32 C         130.7208  139.9206  156.8982 C.ar    1  UNL1        0.0188
     33 C         129.8323  140.7735  156.0420 C.ar    1  UNL1        0.0054
     34 C         130.4347  141.7433  155.0691 C.ar    1  UNL1        0.0716
     35 C         131.9255  141.8602  154.9523 C.ar    1  UNL1        0.0082
     36 C         132.8140  141.0073  155.8086 C.ar    1  UNL1        0.0503
     37 C         129.5461  142.5962  154.2128 C.3     1  UNL1        0.4186
     38 F         128.6576  143.4490  153.3566 F       1  UNL1       -0.1659
     39 F         129.7616  143.7537  155.1421 F       1  UNL1       -0.1659
     40 F         129.3306  141.4386  153.2835 F       1  UNL1       -0.1659
@<TRIPOS>BOND
     1    21    22    1
     2    22    23    1
     3    22    15    1
     4    15    16   ar
     5    16    17   ar
     6    17    18   ar
     7    18    19   ar
     8     9    19    1
     9     9    10    1
    10    10    11    1
    11    11    12    1
    12    12     5    1
    13     5     6    1
    14     6     7    1
    15     7     1    1
    16     1     2   am
    17     2     3    2
    18     2    24    1
    19    24    25    1
    20    25    27    1
    21    27    28   ar
    22    28    29   ar
    23    29    30    1
    24    29    31   ar
    25    31    32   ar
    26    32    33   ar
    27    33    34   ar
    28    34    37    1
    29    37    38    1
    30    37    39    1
    31    37    40    1
    32    34    35   ar
    33    35    36   ar
    34     7     8    1
    35    12    13    1
    36    13    14    1
    37    19    20   ar
    38    20    15   ar
    39    14     9    1
    40     8     5    1
    41    36    27   ar
    42    36    31   ar
    43     1     4    1
    44    25    26    1
@<TRIPOS>MOLECULE
*****
 40 44 0 0 0
SMALL
GASTEIGER

@<TRIPOS>ATOM
      1 N         143.0265  137.8780  157.7998 N.am    1  UNL1       -0.3018
      2 C         143.1777  138.9957  156.8109 C.2     1  UNL1        0.2425
      3 O         142.9104  140.4105  157.2314 O.2     1  UNL1       -0.2733
      4 H         143.2019  136.9494  157.5237 H       1  UNL1        0.1495
      5 N         142.0164  138.5955  161.2026 N.3     1  UNL1       -0.2711
      6 C         143.3241  138.3268  160.5187 C.3     1  UNL1        0.0933
      7 C         142.6081  138.1752  159.2092 C.3     1  UNL1        0.1035
      8 C         141.3005  138.4438  159.8932 C.3     1  UNL1        0.0933
      9 C         140.7611  139.4870  165.4310 C.3     1  UNL1        0.0225
     10 C         141.2544  138.1177  165.0679 C.3     1  UNL1        0.0057
     11 C         141.6728  137.8206  163.6585 C.3     1  UNL1        0.0163
     12 C         141.5980  138.8927  162.6121 C.3     1  UNL1        0.0576
     13 C         141.1047  140.2619  162.9751 C.3     1  UNL1        0.0163
     14 C         140.6863  140.5591  164.3846 C.3     1  UNL1        0.0057
     15 C         140.8947  140.7133  169.2030 C.ar    1  UNL1        0.0476
     16 C         139.5057  140.3781  169.6594 C.ar    1  UNL1        0.0145
     17 C         138.5351  139.7459  168.7064 C.ar    1  UNL1        0.0009
     18 C         138.9536  139.4489  167.2969 C.ar    1  UNL1       -0.0042
     19 C         140.3427  139.7841  166.8404 C.ar    1  UNL1       -0.0213
     20 C         141.3132  140.4163  167.7936 C.ar    1  UNL1        0.0102
     21 C         143.3340  141.3287  169.8522 C.3     1  UNL1        0.1122
     22 N         141.8652  141.3455  170.1562 N.pl3   1  UNL1       -0.3041
     23 C         141.3669  141.9945  171.4133 C.3     1  UNL1        0.1122
     24 C         143.5961  138.6985  155.4014 C.3     1  UNL1        0.1747
     25 N         144.1491  137.3485  155.0520 N.pl3   1  UNL1       -0.3093
     26 H         145.1139  137.1738  155.1406 H       1  UNL1        0.1487
     27 C         143.2320  136.2649  154.5677 C.ar    1  UNL1        0.1500
     28 N         142.1785  136.4089  153.5096 N.ar    1  UNL1       -0.1544
     29 N         141.5028  135.0799  153.3444 N.ar    1  UNL1       -0.2476
     30 C         140.3872  134.7706  152.3906 C.3     1  UNL1        0.1537
     31 C         142.1386  134.1146  154.3003 C.ar    1  UNL1        0.0807
     32 C         141.8825  132.6633  154.5800 C.ar    1  UNL1        0.0188
     33 C         142.6951  131.9444  155.6158 C.ar    1  UNL1        0.0054
     34 C         143.7638  132.6768  156.3718 C.ar    1  UNL1        0.0716
     35 C         144.0199  134.1280  156.0921 C.ar    1  UNL1        0.0082
     36 C         143.2073  134.8469  155.0564 C.ar    1  UNL1        0.0503
     37 C         144.5764  131.9578  157.4077 C.3     1  UNL1        0.4186
     38 F         145.3889  131.2388  158.4434 F       1  UNL1       -0.1659
     39 F         144.5287  133.1715  158.2877 F       1  UNL1       -0.1659
     40 F         144.6241  130.7440  156.5276 F       1  UNL1       -0.1659
@<TRIPOS>BOND
     1    21    22    1
     2    22    23    1
     3    22    15    1
     4    15    16   ar
     5    16    17   ar
     6    17    18   ar
     7    18    19   ar
     8     9    19    1
     9     9    10    1
    10    10    11    1
    11    11    12    1
    12    12     5    1
    13     5     6    1
    14     6     7    1
    15     7     1    1
    16     1     2   am
    17     2     3    2
    18     2    24    1
    19    24    25    1
    20    25    27    1
    21    27    28   ar
    22    28    29   ar
    23    29    30    1
    24    29    31   ar
    25    31    32   ar
    26    32    33   ar
    27    33    34   ar
    28    34    37    1
    29    37    38    1
    30    37    39    1
    31    37    40    1
    32    34    35   ar
    33    35    36   ar
    34     7     8    1
    35    12    13    1
    36    13    14    1
    37    19    20   ar
    38    20    15   ar
    39    14     9    1
    40     8     5    1
    41    36    27   ar
    42    36    31   ar
    43     1     4    1
    44    25    26    1
@<TRIPOS>MOLECULE
*****
 40 44 0 0 0
SMALL
GASTEIGER

@<TRIPOS>ATOM
      1 N         142.9861  137.0925  157.7461 N.am    1  UNL1       -0.3018
      2 C         143.3097  135.6557  157.4620 C.2     1  UNL1        0.2425
      3 O         143.2541  134.6419  158.5661 O.2     1  UNL1       -0.2733
      4 H         143.0226  137.7579  157.0214 H       1  UNL1        0.1495
      5 N         142.0706  138.1137  161.0977 N.3     1  UNL1       -0.2711
      6 C         141.3687  138.0718  159.7727 C.3     1  UNL1        0.0933
      7 C         142.6069  137.5155  159.1344 C.3     1  UNL1        0.1035
      8 C         143.3088  137.5575  160.4593 C.3     1  UNL1        0.0933
      9 C         140.9331  139.3827  165.2626 C.3     1  UNL1        0.0225
     10 C         141.4146  140.4021  164.2730 C.3     1  UNL1        0.0057
     11 C         141.7937  139.9791  162.8848 C.3     1  UNL1        0.0163
     12 C         141.6915  138.5367  162.4860 C.3     1  UNL1        0.0576
     13 C         141.2101  137.5173  163.4755 C.3     1  UNL1        0.0163
     14 C         140.8309  137.9403  164.8637 C.3     1  UNL1        0.0057
     15 C         141.1545  140.9849  168.8866 C.ar    1  UNL1        0.0476
     16 C         139.7955  140.6519  169.4272 C.ar    1  UNL1        0.0145
     17 C         138.8158  139.8958  168.5797 C.ar    1  UNL1        0.0009
     18 C         139.1950  139.4728  167.1915 C.ar    1  UNL1       -0.0042
     19 C         140.5540  139.8058  166.6508 C.ar    1  UNL1       -0.0213
     20 C         141.5337  140.5619  167.4984 C.ar    1  UNL1        0.0102
     21 C         141.8525  141.9609  171.1911 C.3     1  UNL1        0.1122
     22 N         142.1342  141.7410  169.7342 N.pl3   1  UNL1       -0.3041
     23 C         143.3957  142.2773  169.1250 C.3     1  UNL1        0.1122
     24 C         143.6888  135.2327  156.0737 C.3     1  UNL1        0.1747
     25 N         144.3428  133.9018  155.8474 N.pl3   1  UNL1       -0.3093
     26 H         145.3033  133.7877  156.0312 H       1  UNL1        0.1487
     27 C         143.5334  132.7448  155.3412 C.ar    1  UNL1        0.1500
     28 N         142.7780  132.6969  154.0462 N.ar    1  UNL1       -0.1544
     29 N         142.1151  131.3551  153.9457 N.ar    1  UNL1       -0.2476
     30 C         141.2571  130.8783  152.8115 C.3     1  UNL1        0.1537
     31 C         142.4608  130.5738  155.1786 C.ar    1  UNL1        0.0807
     32 C         142.0906  129.1912  155.6274 C.ar    1  UNL1        0.0188
     33 C         142.5970  128.6675  156.9386 C.ar    1  UNL1        0.0054
     34 C         143.4736  129.5265  157.8010 C.ar    1  UNL1        0.0716
     35 C         143.8438  130.9090  157.3523 C.ar    1  UNL1        0.0082
     36 C         143.3374  131.4327  156.0411 C.ar    1  UNL1        0.0503
     37 C         143.9800  129.0027  159.1123 C.3     1  UNL1        0.4186
     38 F         144.4864  128.4790  160.4235 F       1  UNL1       -0.1659
     39 F         145.3709  129.4275  158.7448 F       1  UNL1       -0.1659
     40 F         142.5892  128.5780  159.4797 F       1  UNL1       -0.1659
@<TRIPOS>BOND
     1    21    22    1
     2    22    23    1
     3    22    15    1
     4    15    16   ar
     5    16    17   ar
     6    17    18   ar
     7    18    19   ar
     8     9    19    1
     9     9    10    1
    10    10    11    1
    11    11    12    1
    12    12     5    1
    13     5     6    1
    14     6     7    1
    15     7     1    1
    16     1     2   am
    17     2     3    2
    18     2    24    1
    19    24    25    1
    20    25    27    1
    21    27    28   ar
    22    28    29   ar
    23    29    30    1
    24    29    31   ar
    25    31    32   ar
    26    32    33   ar
    27    33    34   ar
    28    34    37    1
    29    37    38    1
    30    37    39    1
    31    37    40    1
    32    34    35   ar
    33    35    36   ar
    34     7     8    1
    35    12    13    1
    36    13    14    1
    37    19    20   ar
    38    20    15   ar
    39    14     9    1
    40     8     5    1
    41    36    27   ar
    42    36    31   ar
    43     1     4    1
    44    25    26    1
