@<TRIPOS>MOLECULE
*****
 32 37 0 0 0
SMALL
GASTEIGER

@<TRIPOS>ATOM
      1 C         142.5416  136.7030  157.7082 C.3     1  UNL1        0.1161
      2 C         143.2726  135.4095  157.5016 C.3     1  UNL1        0.0510
      3 C         142.9108  134.5193  156.3499 C.2     1  UNL1       -0.0044
      4 C         141.8181  134.9225  155.4047 C.2     1  UNL1        0.0689
      5 N         141.6831  133.8480  154.3668 N.2     1  UNL1       -0.2526
      6 C         142.6924  132.7808  154.6705 C.2     1  UNL1        0.0627
      7 C         143.0186  131.4848  153.9893 C.3     1  UNL1        0.0717
      8 C         144.1035  130.6037  154.5338 C.2     1  UNL1       -0.0198
      9 C         144.8623  131.0185  155.7594 C.2     1  UNL1       -0.0042
     10 C         144.5361  132.3145  156.4406 C.2     1  UNL1        0.0006
     11 C         143.4512  133.1956  155.8961 C.2     1  UNL1        0.0111
     12 C         141.0871  136.2160  155.6113 C.3     1  UNL1        0.0947
     13 N         141.4489  137.1062  156.7630 N.3     1  UNL1       -0.2887
     14 H         140.6038  137.2223  157.3223 H       1  UNL1        0.1239
     15 C         143.2266  138.4366  161.1127 C.ar    1  UNL1        0.0769
     16 C         143.6937  139.4897  160.1521 C.ar    1  UNL1        0.1171
     17 N         143.4940  138.9685  158.7598 N.ar    1  UNL1       -0.2282
     18 C         142.9034  137.5933  158.8600 C.ar    1  UNL1        0.1318
     19 N         142.7382  137.2645  160.3142 N.ar    1  UNL1       -0.3397
     20 H         142.3732  136.4266  160.6802 H       1  UNL1        0.1671
     21 C         143.2811  138.7402  165.6022 C.ar    1  UNL1        0.0000
     22 C         144.4161  139.3025  164.7986 C.ar    1  UNL1        0.0000
     23 C         144.3979  139.2013  163.3022 C.ar    1  UNL1        0.0015
     24 C         143.2448  138.5378  162.6093 C.ar    1  UNL1        0.0172
     25 C         142.1098  137.9755  163.4128 C.ar    1  UNL1        0.0015
     26 C         142.1280  138.0767  164.9092 C.ar    1  UNL1        0.0000
     27 C         139.9944  136.6192  154.6661 C.3     1  UNL1        0.0202
     28 C         138.7150  137.1923  155.1995 C.3     1  UNL1        0.0017
     29 C         137.6222  137.5956  154.2543 C.3     1  UNL1        0.0001
     30 C         137.8090  137.4257  152.7757 C.3     1  UNL1        0.0000
     31 C         139.0884  136.8525  152.2423 C.3     1  UNL1        0.0001
     32 C         140.1811  136.4493  153.1875 C.3     1  UNL1        0.0017
@<TRIPOS>BOND
     1    21    22   ar
     2    22    23   ar
     3    23    24   ar
     4    24    15    1
     5    15    16   ar
     6    16    17   ar
     7    17    18   ar
     8     1    18    1
     9     1     2    1
    10     2     3    1
    11     3     4    2
    12     4     5    1
    13     5     6    2
    14     6     7    1
    15     7     8    1
    16     8     9    2
    17     9    10    1
    18    10    11    2
    19     4    12    1
    20    12    27    1
    21    27    28    1
    22    28    29    1
    23    29    30    1
    24    30    31    1
    25    31    32    1
    26    12    13    1
    27    18    19   ar
    28    24    25   ar
    29    25    26   ar
    30    26    21   ar
    31    19    15   ar
    32    13     1    1
    33    11     3    1
    34    32    27    1
    35    11     6    1
    36    13    14    1
    37    19    20    1
@<TRIPOS>MOLECULE
*****
 32 37 0 0 0
SMALL
GASTEIGER

@<TRIPOS>ATOM
      1 C         139.9119  143.9269  158.3088 C.3     1  UNL1        0.1161
      2 C         140.5877  142.6121  158.0544 C.3     1  UNL1        0.0510
      3 C         140.9207  141.7055  159.2021 C.2     1  UNL1       -0.0044
      4 C         140.5778  142.1137  160.6042 C.2     1  UNL1        0.0689
      5 N         141.0258  141.0201  161.5279 N.2     1  UNL1       -0.2526
      6 C         141.6455  139.9360  160.6968 C.2     1  UNL1        0.0627
      7 C         142.2605  138.6179  161.0631 C.3     1  UNL1        0.0717
      8 C         142.8105  137.7234  159.9921 C.2     1  UNL1       -0.0198
      9 C         142.7456  138.1470  158.5546 C.2     1  UNL1       -0.0042
     10 C         142.1306  139.4651  158.1882 C.2     1  UNL1        0.0006
     11 C         141.5805  140.3596  159.2593 C.2     1  UNL1        0.0111
     12 C         139.9020  143.4285  160.8585 C.3     1  UNL1        0.0947
     13 N         139.5691  144.3351  159.7109 N.3     1  UNL1       -0.2887
     14 H         140.0473  145.2189  159.8855 H       1  UNL1        0.1239
     15 C         139.2806  146.8216  155.8013 C.ar    1  UNL1        0.0769
     16 C         138.8528  145.6356  154.9885 C.ar    1  UNL1        0.1171
     17 N         139.0373  144.4069  155.8289 N.ar    1  UNL1       -0.2282
     18 C         139.5790  144.8335  157.1610 C.ar    1  UNL1        0.1318
     19 N         139.7294  146.3258  157.1440 N.ar    1  UNL1       -0.3397
     20 H         140.0640  146.8822  157.8841 H       1  UNL1        0.1671
     21 C         139.2269  151.1132  154.4490 C.ar    1  UNL1        0.0000
     22 C         138.5127  150.7141  155.7062 C.ar    1  UNL1        0.0000
     23 C         138.5306  149.2835  156.1569 C.ar    1  UNL1        0.0015
     24 C         139.2627  148.2522  155.3505 C.ar    1  UNL1        0.0172
     25 C         139.9769  148.6514  154.0933 C.ar    1  UNL1        0.0015
     26 C         139.9590  150.0819  153.6426 C.ar    1  UNL1        0.0000
     27 C         139.5592  143.8367  162.2606 C.3     1  UNL1        0.0202
     28 C         140.6412  144.2878  163.1962 C.3     1  UNL1        0.0017
     29 C         140.2983  144.6960  164.5983 C.3     1  UNL1        0.0001
     30 C         138.8733  144.6530  165.0648 C.3     1  UNL1        0.0000
     31 C         137.7912  144.2018  164.1291 C.3     1  UNL1        0.0001
     32 C         138.1341  143.7936  162.7271 C.3     1  UNL1        0.0017
@<TRIPOS>BOND
     1    21    22   ar
     2    22    23   ar
     3    23    24   ar
     4    24    15    1
     5    15    16   ar
     6    16    17   ar
     7    17    18   ar
     8     1    18    1
     9     1     2    1
    10     2     3    1
    11     3     4    2
    12     4     5    1
    13     5     6    2
    14     6     7    1
    15     7     8    1
    16     8     9    2
    17     9    10    1
    18    10    11    2
    19     4    12    1
    20    12    27    1
    21    27    28    1
    22    28    29    1
    23    29    30    1
    24    30    31    1
    25    31    32    1
    26    12    13    1
    27    18    19   ar
    28    24    25   ar
    29    25    26   ar
    30    26    21   ar
    31    19    15   ar
    32    13     1    1
    33    11     3    1
    34    32    27    1
    35    11     6    1
    36    13    14    1
    37    19    20    1
@<TRIPOS>MOLECULE
*****
 32 37 0 0 0
SMALL
GASTEIGER

@<TRIPOS>ATOM
      1 C         141.2194  138.8304  158.5743 C.3     1  UNL1        0.1161
      2 C         142.2904  139.8756  158.4711 C.3     1  UNL1        0.0510
      3 C         143.3478  139.7639  157.4131 C.2     1  UNL1       -0.0044
      4 C         143.3343  138.6071  156.4584 C.2     1  UNL1        0.0689
      5 N         144.4989  138.7622  155.5258 N.2     1  UNL1       -0.2526
      6 C         145.2321  140.0149  155.9041 C.2     1  UNL1        0.0627
      7 C         146.4556  140.6718  155.3371 C.3     1  UNL1        0.0717
      8 C         146.9677  141.9478  155.9367 C.2     1  UNL1       -0.0198
      9 C         146.2563  142.5669  157.1031 C.2     1  UNL1       -0.0042
     10 C         145.0328  141.9100  157.6701 C.2     1  UNL1        0.0006
     11 C         144.5207  140.6340  157.0706 C.2     1  UNL1        0.0111
     12 C         142.2634  137.5619  156.5616 C.3     1  UNL1        0.0947
     13 N         141.2059  137.6735  157.6196 N.3     1  UNL1       -0.2887
     14 H         141.2630  136.8256  158.1836 H       1  UNL1        0.1239
     15 C         139.0452  138.9573  161.7872 C.ar    1  UNL1        0.0769
     16 C         138.0244  139.2706  160.7338 C.ar    1  UNL1        0.1171
     17 N         138.7145  139.2612  159.4020 N.ar    1  UNL1       -0.2282
     18 C         140.1619  138.9421  159.6324 C.ar    1  UNL1        0.1318
     19 N         140.3664  138.7542  161.1064 N.ar    1  UNL1       -0.3397
     20 H         141.2181  138.5360  161.5494 H       1  UNL1        0.1671
     21 C         138.2791  138.6757  166.2125 C.ar    1  UNL1        0.0000
     22 C         138.6880  137.4548  165.4430 C.ar    1  UNL1        0.0000
     23 C         138.9433  137.5487  163.9679 C.ar    1  UNL1        0.0015
     24 C         138.7899  138.8634  163.2623 C.ar    1  UNL1        0.0172
     25 C         138.3810  140.0843  164.0318 C.ar    1  UNL1        0.0015
     26 C         138.1257  139.9905  165.5069 C.ar    1  UNL1        0.0000
     27 C         142.2499  136.4050  155.6069 C.3     1  UNL1        0.0202
     28 C         142.7710  135.0675  156.0419 C.3     1  UNL1        0.0017
     29 C         142.7575  133.9106  155.0871 C.3     1  UNL1        0.0001
     30 C         142.2228  134.0914  153.6974 C.3     1  UNL1        0.0000
     31 C         141.7015  135.4290  153.2624 C.3     1  UNL1        0.0001
     32 C         141.7151  136.5857  154.2171 C.3     1  UNL1        0.0017
@<TRIPOS>BOND
     1    21    22   ar
     2    22    23   ar
     3    23    24   ar
     4    24    15    1
     5    15    16   ar
     6    16    17   ar
     7    17    18   ar
     8     1    18    1
     9     1     2    1
    10     2     3    1
    11     3     4    2
    12     4     5    1
    13     5     6    2
    14     6     7    1
    15     7     8    1
    16     8     9    2
    17     9    10    1
    18    10    11    2
    19     4    12    1
    20    12    27    1
    21    27    28    1
    22    28    29    1
    23    29    30    1
    24    30    31    1
    25    31    32    1
    26    12    13    1
    27    18    19   ar
    28    24    25   ar
    29    25    26   ar
    30    26    21   ar
    31    19    15   ar
    32    13     1    1
    33    11     3    1
    34    32    27    1
    35    11     6    1
    36    13    14    1
    37    19    20    1
@<TRIPOS>MOLECULE
*****
 32 37 0 0 0
SMALL
GASTEIGER

@<TRIPOS>ATOM
      1 C         142.2561  138.7264  158.4790 C.3     1  UNL1        0.1161
      2 C         142.1539  140.2050  158.2476 C.3     1  UNL1        0.0510
      3 C         141.5914  141.0943  159.3165 C.2     1  UNL1       -0.0044
      4 C         141.1311  140.5051  160.6169 C.2     1  UNL1        0.0689
      5 N         140.6238  141.6232  161.4786 N.2     1  UNL1       -0.2526
      6 C         140.7707  142.9034  160.7108 C.2     1  UNL1        0.0627
      7 C         140.4371  144.3246  161.0557 C.3     1  UNL1        0.0717
      8 C         140.7015  145.4188  160.0645 C.2     1  UNL1       -0.0198
      9 C         141.2995  145.0919  158.7282 C.2     1  UNL1       -0.0042
     10 C         141.6331  143.6708  158.3833 C.2     1  UNL1        0.0006
     11 C         141.3686  142.5765  159.3745 C.2     1  UNL1        0.0111
     12 C         141.2333  139.0266  160.8483 C.3     1  UNL1        0.0947
     13 N         141.7958  138.1372  159.7794 N.3     1  UNL1       -0.2887
     14 H         141.0724  137.4544  159.5536 H       1  UNL1        0.1239
     15 C         143.3087  135.8862  156.0520 C.ar    1  UNL1        0.0769
     16 C         144.0598  137.0509  155.4782 C.ar    1  UNL1        0.1171
     17 N         143.7569  138.2566  156.3175 N.ar    1  UNL1       -0.2282
     18 C         142.8186  137.8371  157.4100 C.ar    1  UNL1        0.1318
     19 N         142.5416  136.3721  157.2459 N.ar    1  UNL1       -0.3397
     20 H         141.9586  135.8254  157.8209 H       1  UNL1        0.1671
     21 C         143.3494  131.6738  154.4695 C.ar    1  UNL1        0.0000
     22 C         144.1131  132.0146  155.7147 C.ar    1  UNL1        0.0000
     23 C         144.0995  133.4187  156.2422 C.ar    1  UNL1        0.0015
     24 C         143.3222  134.4820  155.5244 C.ar    1  UNL1        0.0172
     25 C         142.5586  134.1413  154.2792 C.ar    1  UNL1        0.0015
     26 C         142.5722  132.7372  153.7517 C.ar    1  UNL1        0.0000
     27 C         140.7729  138.4374  162.1487 C.3     1  UNL1        0.0202
     28 C         141.7762  138.0593  163.1976 C.3     1  UNL1        0.0017
     29 C         141.3158  137.4700  164.4980 C.3     1  UNL1        0.0001
     30 C         139.8521  137.2590  164.7494 C.3     1  UNL1        0.0000
     31 C         138.8488  137.6371  163.7003 C.3     1  UNL1        0.0001
     32 C         139.3092  138.2263  162.4001 C.3     1  UNL1        0.0017
@<TRIPOS>BOND
     1    21    22   ar
     2    22    23   ar
     3    23    24   ar
     4    24    15    1
     5    15    16   ar
     6    16    17   ar
     7    17    18   ar
     8     1    18    1
     9     1     2    1
    10     2     3    1
    11     3     4    2
    12     4     5    1
    13     5     6    2
    14     6     7    1
    15     7     8    1
    16     8     9    2
    17     9    10    1
    18    10    11    2
    19     4    12    1
    20    12    27    1
    21    27    28    1
    22    28    29    1
    23    29    30    1
    24    30    31    1
    25    31    32    1
    26    12    13    1
    27    18    19   ar
    28    24    25   ar
    29    25    26   ar
    30    26    21   ar
    31    19    15   ar
    32    13     1    1
    33    11     3    1
    34    32    27    1
    35    11     6    1
    36    13    14    1
    37    19    20    1
@<TRIPOS>MOLECULE
*****
 32 37 0 0 0
SMALL
GASTEIGER

@<TRIPOS>ATOM
      1 C         142.0336  139.7628  161.1477 C.3     1  UNL1        0.1161
      2 C         141.0637  138.9673  161.9702 C.3     1  UNL1        0.0510
      3 C         140.7102  139.4176  163.3566 C.2     1  UNL1       -0.0044
      4 C         141.3264  140.6635  163.9205 C.2     1  UNL1        0.0689
      5 N         140.7902  140.8590  165.3076 N.2     1  UNL1       -0.2526
      6 C         139.8425  139.7339  165.6011 C.2     1  UNL1        0.0627
      7 C         139.0182  139.4055  166.8105 C.3     1  UNL1        0.0717
      8 C         138.1445  138.1863  166.8141 C.2     1  UNL1       -0.0198
      9 C         138.0950  137.2955  165.6082 C.2     1  UNL1       -0.0042
     10 C         138.9193  137.6239  164.3988 C.2     1  UNL1        0.0006
     11 C         139.7930  138.8431  164.3953 C.2     1  UNL1        0.0111
     12 C         142.2963  141.4591  163.0979 C.3     1  UNL1        0.0947
     13 N         142.6498  141.0087  161.7115 N.3     1  UNL1       -0.2887
     14 H         143.6603  140.8706  161.6955 H       1  UNL1        0.1239
     15 C         142.5732  137.9711  157.7471 C.ar    1  UNL1        0.0769
     16 C         143.2891  139.2674  157.5085 C.ar    1  UNL1        0.1171
     17 N         143.1741  140.0964  158.7533 N.ar    1  UNL1       -0.2282
     18 C         142.3871  139.3124  159.7612 C.ar    1  UNL1        0.1318
     19 N         142.0158  137.9989  159.1394 N.ar    1  UNL1       -0.3397
     20 H         141.4972  137.2810  159.5696 H       1  UNL1        0.1671
     21 C         142.1690  134.5918  154.8031 C.ar    1  UNL1        0.0000
     22 C         143.4911  134.8616  155.4583 C.ar    1  UNL1        0.0000
     23 C         143.6258  135.9880  156.4396 C.ar    1  UNL1        0.0015
     24 C         142.4385  136.8446  156.7657 C.ar    1  UNL1        0.0172
     25 C         141.1164  136.5749  156.1105 C.ar    1  UNL1        0.0015
     26 C         140.9817  135.4485  155.1292 C.ar    1  UNL1        0.0000
     27 C         142.9125  142.7050  163.6618 C.3     1  UNL1        0.0202
     28 C         143.9602  142.6060  164.7306 C.3     1  UNL1        0.0017
     29 C         144.5765  143.8520  165.2944 C.3     1  UNL1        0.0001
     30 C         144.1450  145.1969  164.7894 C.3     1  UNL1        0.0000
     31 C         143.0973  145.2958  163.7206 C.3     1  UNL1        0.0001
     32 C         142.4811  144.0500  163.1568 C.3     1  UNL1        0.0017
@<TRIPOS>BOND
     1    21    22   ar
     2    22    23   ar
     3    23    24   ar
     4    24    15    1
     5    15    16   ar
     6    16    17   ar
     7    17    18   ar
     8     1    18    1
     9     1     2    1
    10     2     3    1
    11     3     4    2
    12     4     5    1
    13     5     6    2
    14     6     7    1
    15     7     8    1
    16     8     9    2
    17     9    10    1
    18    10    11    2
    19     4    12    1
    20    12    27    1
    21    27    28    1
    22    28    29    1
    23    29    30    1
    24    30    31    1
    25    31    32    1
    26    12    13    1
    27    18    19   ar
    28    24    25   ar
    29    25    26   ar
    30    26    21   ar
    31    19    15   ar
    32    13     1    1
    33    11     3    1
    34    32    27    1
    35    11     6    1
    36    13    14    1
    37    19    20    1
@<TRIPOS>MOLECULE
*****
 32 37 0 0 0
SMALL
GASTEIGER

@<TRIPOS>ATOM
      1 C         143.2867  142.7343  157.4757 C.3     1  UNL1        0.1161
      2 C         143.4088  143.1396  158.9148 C.3     1  UNL1        0.0510
      3 C         142.2295  143.7282  159.6308 C.2     1  UNL1       -0.0044
      4 C         140.9281  143.9116  158.9078 C.2     1  UNL1        0.0689
      5 N         139.9455  144.5140  159.8677 N.2     1  UNL1       -0.2526
      6 C         140.6396  144.7030  161.1840 C.2     1  UNL1        0.0627
      7 C         140.1685  145.2545  162.4970 C.3     1  UNL1        0.0717
      8 C         141.1092  145.3204  163.6635 C.2     1  UNL1       -0.0198
      9 C         142.5208  144.8348  163.5171 C.2     1  UNL1       -0.0042
     10 C         142.9918  144.2832  162.2041 C.2     1  UNL1        0.0006
     11 C         142.0512  144.2173  161.0376 C.2     1  UNL1        0.0111
     12 C         140.8060  143.5062  157.4688 C.3     1  UNL1        0.0947
     13 N         141.9853  142.9176  156.7527 N.3     1  UNL1       -0.2887
     14 H         142.1754  143.5212  155.9527 H       1  UNL1        0.1239
     15 C         146.5773  141.9247  155.5830 C.ar    1  UNL1        0.0769
     16 C         145.9845  140.5550  155.7327 C.ar    1  UNL1        0.1171
     17 N         144.6797  140.6915  156.4599 N.ar    1  UNL1       -0.2282
     18 C         144.4661  142.1456  156.7597 C.ar    1  UNL1        0.1318
     19 N         145.6388  142.9078  156.2178 N.ar    1  UNL1       -0.3397
     20 H         145.7696  143.8822  156.2696 H       1  UNL1        0.1671
     21 C         150.4848  142.9116  153.5813 C.ar    1  UNL1        0.0000
     22 C         149.2162  143.5582  153.1096 C.ar    1  UNL1        0.0000
     23 C         147.9137  143.2292  153.7769 C.ar    1  UNL1        0.0015
     24 C         147.8799  142.2537  154.9158 C.ar    1  UNL1        0.0172
     25 C         149.1485  141.6071  155.3875 C.ar    1  UNL1        0.0015
     26 C         150.4509  141.9361  154.7202 C.ar    1  UNL1        0.0000
     27 C         139.5046  143.6896  156.7457 C.3     1  UNL1        0.0202
     28 C         139.3018  144.8807  155.8570 C.3     1  UNL1        0.0017
     29 C         138.0003  145.0640  155.1340 C.3     1  UNL1        0.0001
     30 C         136.9018  144.0561  155.2998 C.3     1  UNL1        0.0000
     31 C         137.1047  142.8649  156.1885 C.3     1  UNL1        0.0001
     32 C         138.4061  142.6817  156.9115 C.3     1  UNL1        0.0017
@<TRIPOS>BOND
     1    21    22   ar
     2    22    23   ar
     3    23    24   ar
     4    24    15    1
     5    15    16   ar
     6    16    17   ar
     7    17    18   ar
     8     1    18    1
     9     1     2    1
    10     2     3    1
    11     3     4    2
    12     4     5    1
    13     5     6    2
    14     6     7    1
    15     7     8    1
    16     8     9    2
    17     9    10    1
    18    10    11    2
    19     4    12    1
    20    12    27    1
    21    27    28    1
    22    28    29    1
    23    29    30    1
    24    30    31    1
    25    31    32    1
    26    12    13    1
    27    18    19   ar
    28    24    25   ar
    29    25    26   ar
    30    26    21   ar
    31    19    15   ar
    32    13     1    1
    33    11     3    1
    34    32    27    1
    35    11     6    1
    36    13    14    1
    37    19    20    1
@<TRIPOS>MOLECULE
*****
 32 37 0 0 0
SMALL
GASTEIGER

@<TRIPOS>ATOM
      1 C         140.1581  144.8041  158.4950 C.3     1  UNL1        0.1161
      2 C         139.5222  143.5724  157.9216 C.3     1  UNL1        0.0510
      3 C         138.8895  143.6185  156.5624 C.2     1  UNL1       -0.0044
      4 C         138.8927  144.8961  155.7765 C.2     1  UNL1        0.0689
      5 N         138.1972  144.6399  154.4725 N.2     1  UNL1       -0.2526
      6 C         137.7641  143.2039  154.4524 C.2     1  UNL1        0.0627
      7 C         137.0354  142.3896  153.4248 C.3     1  UNL1        0.0717
      8 C         136.7346  140.9440  153.6889 C.2     1  UNL1       -0.0198
      9 C         137.1625  140.3127  154.9806 C.2     1  UNL1       -0.0042
     10 C         137.8912  141.1270  156.0081 C.2     1  UNL1        0.0006
     11 C         138.1920  142.5726  155.7440 C.2     1  UNL1        0.0111
     12 C         139.5286  146.1278  156.3499 C.3     1  UNL1        0.0947
     13 N         140.1613  146.0817  157.7091 N.3     1  UNL1       -0.2887
     14 H         139.6841  146.7796  158.2798 H       1  UNL1        0.1239
     15 C         142.2379  144.1567  161.7076 C.ar    1  UNL1        0.0769
     16 C         141.2908  145.2176  162.1844 C.ar    1  UNL1        0.1171
     17 N         140.3964  145.5893  161.0390 N.ar    1  UNL1       -0.2282
     18 C         140.7908  144.7580  159.8543 C.ar    1  UNL1        0.1318
     19 N         141.9289  143.8727  160.2675 N.ar    1  UNL1       -0.3397
     20 H         142.3918  143.2198  159.6941 H       1  UNL1        0.1671
     21 C         145.4437  142.1740  164.1656 C.ar    1  UNL1        0.0000
     22 C         145.3080  141.8492  162.7075 C.ar    1  UNL1        0.0000
     23 C         144.2395  142.5101  161.8882 C.ar    1  UNL1        0.0015
     24 C         143.3065  143.4958  162.5270 C.ar    1  UNL1        0.0172
     25 C         143.4422  143.8206  163.9850 C.ar    1  UNL1        0.0015
     26 C         144.5108  143.1597  164.8044 C.ar    1  UNL1        0.0000
     27 C         139.5318  147.4054  155.5640 C.3     1  UNL1        0.0202
     28 C         138.8134  148.6120  156.0912 C.3     1  UNL1        0.0017
     29 C         138.8167  149.8897  155.3053 C.3     1  UNL1        0.0001
     30 C         139.5383  149.9607  153.9922 C.3     1  UNL1        0.0000
     31 C         140.2567  148.7540  153.4650 C.3     1  UNL1        0.0001
     32 C         140.2534  147.4765  154.2509 C.3     1  UNL1        0.0017
@<TRIPOS>BOND
     1    21    22   ar
     2    22    23   ar
     3    23    24   ar
     4    24    15    1
     5    15    16   ar
     6    16    17   ar
     7    17    18   ar
     8     1    18    1
     9     1     2    1
    10     2     3    1
    11     3     4    2
    12     4     5    1
    13     5     6    2
    14     6     7    1
    15     7     8    1
    16     8     9    2
    17     9    10    1
    18    10    11    2
    19     4    12    1
    20    12    27    1
    21    27    28    1
    22    28    29    1
    23    29    30    1
    24    30    31    1
    25    31    32    1
    26    12    13    1
    27    18    19   ar
    28    24    25   ar
    29    25    26   ar
    30    26    21   ar
    31    19    15   ar
    32    13     1    1
    33    11     3    1
    34    32    27    1
    35    11     6    1
    36    13    14    1
    37    19    20    1
@<TRIPOS>MOLECULE
*****
 32 37 0 0 0
SMALL
GASTEIGER

@<TRIPOS>ATOM
      1 C         142.7035  139.0627  158.9406 C.3     1  UNL1        0.1161
      2 C         142.1557  140.4281  158.6483 C.3     1  UNL1        0.0510
      3 C         141.8843  141.3838  159.7721 C.2     1  UNL1       -0.0044
      4 C         142.1607  140.9740  161.1883 C.2     1  UNL1        0.0689
      5 N         141.7963  142.1219  162.0825 N.2     1  UNL1       -0.2526
      6 C         141.2946  143.2411  161.2189 C.2     1  UNL1        0.0627
      7 C         140.7953  144.6166  161.5483 C.3     1  UNL1        0.0717
      8 C         140.3504  145.5360  160.4498 C.2     1  UNL1       -0.0198
      9 C         140.4047  145.0798  159.0219 C.2     1  UNL1       -0.0042
     10 C         140.9040  143.7042  158.6925 C.2     1  UNL1        0.0006
     11 C         141.3490  142.7849  159.7910 C.2     1  UNL1        0.0111
     12 C         142.7086  139.6086  161.4807 C.3     1  UNL1        0.0947
     13 N         142.9800  138.6529  160.3568 N.3     1  UNL1       -0.2887
     14 H         142.4198  137.8198  160.5370 H       1  UNL1        0.1239
     15 C         143.0276  136.0964  156.4584 C.ar    1  UNL1        0.0769
     16 C         143.7575  137.1764  155.7162 C.ar    1  UNL1        0.1171
     17 N         143.7249  138.4190  156.5557 N.ar    1  UNL1       -0.2282
     18 C         142.9749  138.1070  157.8167 C.ar    1  UNL1        0.1318
     19 N         142.5440  136.6715  157.7566 N.ar    1  UNL1       -0.3397
     20 H         142.0333  136.1912  158.4478 H       1  UNL1        0.1671
     21 C         142.3992  131.8724  155.0396 C.ar    1  UNL1        0.0000
     22 C         142.7799  132.1355  156.4664 C.ar    1  UNL1        0.0000
     23 C         142.9893  133.5434  156.9393 C.ar    1  UNL1        0.0015
     24 C         142.8181  134.6883  155.9854 C.ar    1  UNL1        0.0172
     25 C         142.4375  134.4252  154.5586 C.ar    1  UNL1        0.0015
     26 C         142.2280  133.0172  154.0857 C.ar    1  UNL1        0.0000
     27 C         142.9850  139.1988  162.8969 C.3     1  UNL1        0.0202
     28 C         141.9479  138.4453  163.6757 C.3     1  UNL1        0.0017
     29 C         142.2245  138.0356  165.0919 C.3     1  UNL1        0.0001
     30 C         143.5381  138.3793  165.7293 C.3     1  UNL1        0.0000
     31 C         144.5753  139.1327  164.9504 C.3     1  UNL1        0.0001
     32 C         144.2987  139.5425  163.5343 C.3     1  UNL1        0.0017
@<TRIPOS>BOND
     1    21    22   ar
     2    22    23   ar
     3    23    24   ar
     4    24    15    1
     5    15    16   ar
     6    16    17   ar
     7    17    18   ar
     8     1    18    1
     9     1     2    1
    10     2     3    1
    11     3     4    2
    12     4     5    1
    13     5     6    2
    14     6     7    1
    15     7     8    1
    16     8     9    2
    17     9    10    1
    18    10    11    2
    19     4    12    1
    20    12    27    1
    21    27    28    1
    22    28    29    1
    23    29    30    1
    24    30    31    1
    25    31    32    1
    26    12    13    1
    27    18    19   ar
    28    24    25   ar
    29    25    26   ar
    30    26    21   ar
    31    19    15   ar
    32    13     1    1
    33    11     3    1
    34    32    27    1
    35    11     6    1
    36    13    14    1
    37    19    20    1
@<TRIPOS>MOLECULE
*****
 32 37 0 0 0
SMALL
GASTEIGER

@<TRIPOS>ATOM
      1 C         139.3953  139.6518  157.3448 C.3     1  UNL1        0.1161
      2 C         139.1072  139.5415  158.8127 C.3     1  UNL1        0.0510
      3 C         138.7452  140.7658  159.6001 C.2     1  UNL1       -0.0044
      4 C         138.6713  142.1005  158.9195 C.2     1  UNL1        0.0689
      5 N         138.2915  143.1246  159.9476 N.2     1  UNL1       -0.2526
      6 C         138.1306  142.4229  161.2635 C.2     1  UNL1        0.0627
      7 C         137.7650  142.9230  162.6296 C.3     1  UNL1        0.0717
      8 C         137.6798  141.9653  163.7809 C.2     1  UNL1       -0.0198
      9 C         137.9602  140.5075  163.5661 C.2     1  UNL1       -0.0042
     10 C         138.3258  140.0074  162.2001 C.2     1  UNL1        0.0006
     11 C         138.4110  140.9651  161.0488 C.2     1  UNL1        0.0111
     12 C         138.9594  142.2108  157.4516 C.3     1  UNL1        0.0947
     13 N         139.3215  140.9865  156.6642 N.3     1  UNL1       -0.2887
     14 H         140.2399  141.1600  156.2558 H       1  UNL1        0.1239
     15 C         140.8546  136.3845  155.8414 C.ar    1  UNL1        0.0769
     16 C         139.7743  136.7022  154.8505 C.ar    1  UNL1        0.1171
     17 N         139.0962  137.9648  155.2930 N.ar    1  UNL1       -0.2282
     18 C         139.7574  138.4274  156.5574 C.ar    1  UNL1        0.1318
     19 N         140.8441  137.4507  156.8964 N.ar    1  UNL1       -0.3397
     20 H         141.4451  137.5008  157.6746 H       1  UNL1        0.1671
     21 C         143.6383  132.8526  155.6780 C.ar    1  UNL1        0.0000
     22 C         142.4071  132.8774  154.8215 C.ar    1  UNL1        0.0000
     23 C         141.4793  134.0547  154.8760 C.ar    1  UNL1        0.0015
     24 C         141.7826  135.2071  155.7869 C.ar    1  UNL1        0.0172
     25 C         143.0137  135.1823  156.6434 C.ar    1  UNL1        0.0015
     26 C         143.9416  134.0050  156.5889 C.ar    1  UNL1        0.0000
     27 C         138.8856  143.5455  156.7710 C.3     1  UNL1        0.0202
     28 C         137.8183  143.8089  155.7505 C.3     1  UNL1        0.0017
     29 C         137.7445  145.1437  155.0699 C.3     1  UNL1        0.0001
     30 C         138.7380  146.2149  155.4098 C.3     1  UNL1        0.0000
     31 C         139.8053  145.9514  156.4304 C.3     1  UNL1        0.0001
     32 C         139.8791  144.6168  157.1109 C.3     1  UNL1        0.0017
@<TRIPOS>BOND
     1    21    22   ar
     2    22    23   ar
     3    23    24   ar
     4    24    15    1
     5    15    16   ar
     6    16    17   ar
     7    17    18   ar
     8     1    18    1
     9     1     2    1
    10     2     3    1
    11     3     4    2
    12     4     5    1
    13     5     6    2
    14     6     7    1
    15     7     8    1
    16     8     9    2
    17     9    10    1
    18    10    11    2
    19     4    12    1
    20    12    27    1
    21    27    28    1
    22    28    29    1
    23    29    30    1
    24    30    31    1
    25    31    32    1
    26    12    13    1
    27    18    19   ar
    28    24    25   ar
    29    25    26   ar
    30    26    21   ar
    31    19    15   ar
    32    13     1    1
    33    11     3    1
    34    32    27    1
    35    11     6    1
    36    13    14    1
    37    19    20    1
