@<TRIPOS>MOLECULE
*****
 34 37 0 0 0
SMALL
GASTEIGER

@<TRIPOS>ATOM
      1 C         141.5145  140.7611  167.0622 C.ar    1  UNL1        0.0208
      2 C         140.5346  141.0369  165.9604 C.ar    1  UNL1        0.0219
      3 C         140.5561  139.8700  165.0182 C.ar    1  UNL1        0.0961
      4 C         139.7996  139.5865  163.7543 C.ar    1  UNL1        0.0685
      5 C         140.0362  138.3059  163.0099 C.ar    1  UNL1        0.0885
      6 C         141.0292  137.3090  163.5292 C.ar    1  UNL1        0.1263
      7 N         141.7857  137.5924  164.7931 N.ar    1  UNL1       -0.1633
      8 N         141.5491  138.8730  165.5376 N.ar    1  UNL1       -0.2270
      9 C         142.1415  139.4237  166.8008 C.ar    1  UNL1        0.1004
     10 C         140.0971  144.6084  170.2542 C.3     1  UNL1        0.0521
     11 C         141.1059  143.5878  169.8178 C.ar    1  UNL1        0.0594
     12 C         140.8058  142.6847  168.6582 C.ar    1  UNL1        0.0148
     13 C         141.8146  141.6641  168.2217 C.ar    1  UNL1        0.0043
     14 C         143.1236  141.5464  168.9447 C.ar    1  UNL1        0.0207
     15 C         143.4237  142.4495  170.1042 C.ar    1  UNL1        0.0984
     16 N         142.4149  143.4701  170.5408 N.ar    1  UNL1       -0.2481
     17 C         139.2797  138.0224  161.7459 C.2     1  UNL1        0.2456
     18 N         137.8679  137.5200  161.8135 N.am    1  UNL1       -0.3252
     19 O         139.9350  138.2412  160.4145 O.2     1  UNL1       -0.2703
     20 H         137.4379  137.3764  162.6874 H       1  UNL1        0.1453
     21 H         137.3714  137.3340  160.9840 H       1  UNL1        0.1453
     22 N         138.8065  140.5835  163.2349 N.pl3   1  UNL1       -0.3327
     23 H         137.8416  140.4095  163.3241 H       1  UNL1        0.1468
     24 C         139.2836  141.8456  162.5795 C.3     1  UNL1        0.0702
     25 C         140.4721  141.9737  161.6735 C.3     1  UNL1        0.0208
     26 C         140.5790  143.4084  161.2491 C.3     1  UNL1        0.0160
     27 C         139.4565  144.1670  161.8928 C.3     1  UNL1        0.0404
     28 C         140.0483  145.3429  161.1737 C.3     1  UNL1        0.0156
     29 N         138.4577  145.1715  162.3862 N.3     1  UNL1       -0.3231
     30 C         138.6558  143.2012  162.7150 C.3     1  UNL1        0.0282
     31 C         137.8243  144.4076  163.0366 C.3     1  UNL1        0.0029
     32 C         137.6814  142.4875  163.6045 C.3     1  UNL1        0.0029
     33 H         138.6801  146.0895  162.0012 H       1  UNL1        0.1188
     34 H         138.4916  145.2126  163.4048 H       1  UNL1        0.1188
@<TRIPOS>BOND
     1    10    11    1
     2    11    12   ar
     3    12    13   ar
     4    13     1    1
     5     1     2   ar
     6     2     3   ar
     7     3     4   ar
     8     4    22    1
     9    24    22    1
    10    24    25    1
    11    25    26    1
    12    26    27    1
    13    27    28    1
    14    27    29    1
    15    27    30    1
    16    30    31    1
    17    30    32    1
    18     4     5   ar
    19     5    17    1
    20    17    18   am
    21    17    19    2
    22     5     6   ar
    23     6     7   ar
    24     7     8   ar
    25     8     9   ar
    26    13    14   ar
    27    14    15   ar
    28    15    16   ar
    29    16    11   ar
    30     9     1   ar
    31     8     3   ar
    32    30    24    1
    33    22    23    1
    34    29    33    1
    35    29    34    1
    36    18    20    1
    37    18    21    1
@<TRIPOS>MOLECULE
*****
 34 37 0 0 0
SMALL
GASTEIGER

@<TRIPOS>ATOM
      1 C         140.0606  140.4440  167.1614 C.ar    1  UNL1        0.0208
      2 C         140.6918  140.9701  165.9065 C.ar    1  UNL1        0.0219
      3 C         140.2839  140.0767  164.7728 C.ar    1  UNL1        0.0961
      4 C         140.6026  140.1057  163.3074 C.ar    1  UNL1        0.0685
      5 C         140.0380  139.0564  162.3962 C.ar    1  UNL1        0.0885
      6 C         139.1548  137.9782  162.9503 C.ar    1  UNL1        0.1263
      7 N         138.8360  137.9492  164.4158 N.ar    1  UNL1       -0.1633
      8 N         139.4005  138.9984  165.3270 N.ar    1  UNL1       -0.2270
      9 C         139.2625  139.2254  166.8033 C.ar    1  UNL1        0.1004
     10 C         140.3465  144.6003  170.2668 C.3     1  UNL1        0.0521
     11 C         140.3454  143.1113  170.0864 C.ar    1  UNL1        0.0594
     12 C         140.2035  142.5221  168.7142 C.ar    1  UNL1        0.0148
     13 C         140.2025  141.0330  168.5336 C.ar    1  UNL1        0.0043
     14 C         140.3433  140.1330  169.7253 C.ar    1  UNL1        0.0207
     15 C         140.4852  140.7221  171.0975 C.ar    1  UNL1        0.0984
     16 N         140.4862  142.2112  171.2780 N.ar    1  UNL1       -0.2481
     17 C         140.3568  139.0854  160.9306 C.2     1  UNL1        0.2456
     18 N         139.2564  138.9458  159.9208 N.am    1  UNL1       -0.3252
     19 O         141.7760  139.2539  160.4750 O.2     1  UNL1       -0.2703
     20 H         138.3250  138.8351  160.2199 H       1  UNL1        0.1453
     21 H         139.4657  138.9648  158.9590 H       1  UNL1        0.1453
     22 N         141.4859  141.1839  162.7531 N.pl3   1  UNL1       -0.3327
     23 H         142.4435  141.0088  162.6062 H       1  UNL1        0.1468
     24 C         140.9102  142.5290  162.4226 C.3     1  UNL1        0.0702
     25 C         139.7123  142.7869  161.5574 C.3     1  UNL1        0.0208
     26 C         139.4929  144.2696  161.4993 C.3     1  UNL1        0.0160
     27 C         140.5553  144.9281  162.3286 C.3     1  UNL1        0.0404
     28 C         139.8716  146.1970  161.9132 C.3     1  UNL1        0.0156
     29 N         141.4747  145.8519  163.0710 N.3     1  UNL1       -0.3231
     30 C         141.4312  143.8524  162.8992 C.3     1  UNL1        0.0282
     31 C         142.1676  145.0011  163.5224 C.3     1  UNL1        0.0029
     32 C         142.4610  143.0168  163.6001 C.3     1  UNL1        0.0029
     33 H         141.1804  146.8170  162.9215 H       1  UNL1        0.1188
     34 H         142.4279  145.7302  162.7289 H       1  UNL1        0.1188
@<TRIPOS>BOND
     1    10    11    1
     2    11    12   ar
     3    12    13   ar
     4    13     1    1
     5     1     2   ar
     6     2     3   ar
     7     3     4   ar
     8     4    22    1
     9    24    22    1
    10    24    25    1
    11    25    26    1
    12    26    27    1
    13    27    28    1
    14    27    29    1
    15    27    30    1
    16    30    31    1
    17    30    32    1
    18     4     5   ar
    19     5    17    1
    20    17    18   am
    21    17    19    2
    22     5     6   ar
    23     6     7   ar
    24     7     8   ar
    25     8     9   ar
    26    13    14   ar
    27    14    15   ar
    28    15    16   ar
    29    16    11   ar
    30     9     1   ar
    31     8     3   ar
    32    30    24    1
    33    22    23    1
    34    29    33    1
    35    29    34    1
    36    18    20    1
    37    18    21    1
@<TRIPOS>MOLECULE
*****
 34 37 0 0 0
SMALL
GASTEIGER

@<TRIPOS>ATOM
      1 C         140.1389  140.2206  167.4477 C.ar    1  UNL1        0.0208
      2 C         141.0518  140.3885  166.2694 C.ar    1  UNL1        0.0219
      3 C         140.5323  139.5299  165.1545 C.ar    1  UNL1        0.0961
      4 C         141.0235  139.2939  163.7570 C.ar    1  UNL1        0.0685
      5 C         140.2806  138.3593  162.8488 C.ar    1  UNL1        0.0885
      6 C         139.0466  137.6609  163.3380 C.ar    1  UNL1        0.1263
      7 N         138.5555  137.8969  164.7355 N.ar    1  UNL1       -0.1633
      8 N         139.2983  138.8314  165.6438 N.ar    1  UNL1       -0.2270
      9 C         139.0551  139.2583  167.0610 C.ar    1  UNL1        0.1004
     10 C         140.3459  144.5657  170.2897 C.3     1  UNL1        0.0521
     11 C         140.3877  143.0690  170.2000 C.ar    1  UNL1        0.0594
     12 C         140.2424  142.3931  168.8687 C.ar    1  UNL1        0.0148
     13 C         140.2842  140.8964  168.7789 C.ar    1  UNL1        0.0043
     14 C         140.4712  140.0755  170.0203 C.ar    1  UNL1        0.0207
     15 C         140.6165  140.7514  171.3515 C.ar    1  UNL1        0.0984
     16 N         140.5747  142.2481  171.4414 N.ar    1  UNL1       -0.2481
     17 C         140.7718  138.1233  161.4512 C.2     1  UNL1        0.2456
     18 N         139.8619  138.3706  160.2846 N.am    1  UNL1       -0.3252
     19 O         142.1729  137.6399  161.2203 O.2     1  UNL1       -0.2703
     20 H         138.9423  138.6878  160.4362 H       1  UNL1        0.1453
     21 H         140.1842  138.2157  159.3674 H       1  UNL1        0.1453
     22 N         142.2575  139.9923  163.2677 N.pl3   1  UNL1       -0.3327
     23 H         143.0069  139.4691  162.9017 H       1  UNL1        0.1468
     24 C         142.3497  141.4879  163.3360 C.3     1  UNL1        0.0702
     25 C         141.3542  142.4592  162.7744 C.3     1  UNL1        0.0208
     26 C         141.8428  143.8464  163.0693 C.3     1  UNL1        0.0160
     27 C         143.1403  143.7324  163.8132 C.3     1  UNL1        0.0404
     28 C         143.0964  145.2317  163.8034 C.3     1  UNL1        0.0156
     29 N         144.4286  143.9319  164.5551 N.3     1  UNL1       -0.3231
     30 C         143.4536  142.2748  163.9781 C.3     1  UNL1        0.0282
     31 C         144.6765  142.7789  164.6855 C.3     1  UNL1        0.0029
     32 C         144.0225  140.9226  164.2908 C.3     1  UNL1        0.0029
     33 H         144.6055  144.9302  164.6669 H       1  UNL1        0.1188
     34 H         145.1930  143.5080  164.0292 H       1  UNL1        0.1188
@<TRIPOS>BOND
     1    10    11    1
     2    11    12   ar
     3    12    13   ar
     4    13     1    1
     5     1     2   ar
     6     2     3   ar
     7     3     4   ar
     8     4    22    1
     9    24    22    1
    10    24    25    1
    11    25    26    1
    12    26    27    1
    13    27    28    1
    14    27    29    1
    15    27    30    1
    16    30    31    1
    17    30    32    1
    18     4     5   ar
    19     5    17    1
    20    17    18   am
    21    17    19    2
    22     5     6   ar
    23     6     7   ar
    24     7     8   ar
    25     8     9   ar
    26    13    14   ar
    27    14    15   ar
    28    15    16   ar
    29    16    11   ar
    30     9     1   ar
    31     8     3   ar
    32    30    24    1
    33    22    23    1
    34    29    33    1
    35    29    34    1
    36    18    20    1
    37    18    21    1
@<TRIPOS>MOLECULE
*****
 34 37 0 0 0
SMALL
GASTEIGER

@<TRIPOS>ATOM
      1 C         142.8640  139.3616  164.1316 C.ar    1  UNL1        0.0208
      2 C         141.5713  139.8899  164.6791 C.ar    1  UNL1        0.0219
      3 C         141.6170  139.7691  166.1735 C.ar    1  UNL1        0.0961
      4 C         140.6264  140.1302  167.2404 C.ar    1  UNL1        0.0685
      5 C         140.9569  139.8885  168.6834 C.ar    1  UNL1        0.0885
      6 C         142.2778  139.2856  169.0596 C.ar    1  UNL1        0.1263
      7 N         143.2684  138.9245  167.9927 N.ar    1  UNL1       -0.1633
      8 N         142.9380  139.1662  166.5496 N.ar    1  UNL1       -0.2270
      9 C         143.7087  138.9144  165.2877 C.ar    1  UNL1        0.1004
     10 C         144.1273  141.7486  159.6924 C.3     1  UNL1        0.0521
     11 C         143.8768  140.4862  160.4628 C.ar    1  UNL1        0.0594
     12 C         143.4957  140.5550  161.9120 C.ar    1  UNL1        0.0148
     13 C         143.2452  139.2927  162.6825 C.ar    1  UNL1        0.0043
     14 C         143.3760  137.9614  162.0039 C.ar    1  UNL1        0.0207
     15 C         143.7571  137.8925  160.5547 C.ar    1  UNL1        0.0984
     16 N         144.0076  139.1549  159.7842 N.ar    1  UNL1       -0.2481
     17 C         139.9662  140.2496  169.7504 C.2     1  UNL1        0.2456
     18 N         140.4130  141.0151  170.9606 N.am    1  UNL1       -0.3252
     19 O         138.5289  139.8453  169.6072 O.2     1  UNL1       -0.2703
     20 H         141.3564  141.2805  171.0546 H       1  UNL1        0.1453
     21 H         139.7628  141.2521  171.6608 H       1  UNL1        0.1453
     22 N         139.3053  140.7331  166.8643 N.pl3   1  UNL1       -0.3327
     23 H         138.4705  140.3487  167.2171 H       1  UNL1        0.1468
     24 C         139.2564  141.9218  165.9507 C.3     1  UNL1        0.0702
     25 C         139.9996  143.2108  166.1403 C.3     1  UNL1        0.0208
     26 C         139.6581  144.1158  164.9939 C.3     1  UNL1        0.0160
     27 C         138.7038  143.3861  164.0957 C.3     1  UNL1        0.0404
     28 C         138.7549  144.6445  163.2810 C.3     1  UNL1        0.0156
     29 N         137.7602  142.9195  163.0272 N.3     1  UNL1       -0.3231
     30 C         138.4555  142.0301  164.6870 C.3     1  UNL1        0.0282
     31 C         137.5637  141.8470  163.4948 C.3     1  UNL1        0.0029
     32 C         138.0208  140.6359  165.0291 C.3     1  UNL1        0.0029
     33 H         137.6428  143.6564  162.3318 H       1  UNL1        0.1188
     34 H         136.8561  142.6988  163.4447 H       1  UNL1        0.1188
@<TRIPOS>BOND
     1    10    11    1
     2    11    12   ar
     3    12    13   ar
     4    13     1    1
     5     1     2   ar
     6     2     3   ar
     7     3     4   ar
     8     4    22    1
     9    24    22    1
    10    24    25    1
    11    25    26    1
    12    26    27    1
    13    27    28    1
    14    27    29    1
    15    27    30    1
    16    30    31    1
    17    30    32    1
    18     4     5   ar
    19     5    17    1
    20    17    18   am
    21    17    19    2
    22     5     6   ar
    23     6     7   ar
    24     7     8   ar
    25     8     9   ar
    26    13    14   ar
    27    14    15   ar
    28    15    16   ar
    29    16    11   ar
    30     9     1   ar
    31     8     3   ar
    32    30    24    1
    33    22    23    1
    34    29    33    1
    35    29    34    1
    36    18    20    1
    37    18    21    1
@<TRIPOS>MOLECULE
*****
 34 37 0 0 0
SMALL
GASTEIGER

@<TRIPOS>ATOM
      1 C         140.7068  141.0924  167.5537 C.ar    1  UNL1        0.0208
      2 C         141.0247  141.0845  166.0878 C.ar    1  UNL1        0.0219
      3 C         140.2306  139.9850  165.4472 C.ar    1  UNL1        0.0961
      4 C         140.1394  139.5087  164.0277 C.ar    1  UNL1        0.0685
      5 C         139.2394  138.3606  163.6783 C.ar    1  UNL1        0.0885
      6 C         138.4308  137.6889  164.7482 C.ar    1  UNL1        0.1263
      7 N         138.5220  138.1653  166.1677 N.ar    1  UNL1       -0.1633
      8 N         139.4219  139.3133  166.5171 N.ar    1  UNL1       -0.2270
      9 C         139.7162  139.9977  167.8190 C.ar    1  UNL1        0.1004
     10 C         144.7644  142.8248  170.2986 C.3     1  UNL1        0.0521
     11 C         143.3079  142.8965  169.9474 C.ar    1  UNL1        0.0594
     12 C         142.7356  141.9586  168.9261 C.ar    1  UNL1        0.0148
     13 C         141.2790  142.0302  168.5749 C.ar    1  UNL1        0.0043
     14 C         140.3947  143.0397  169.2450 C.ar    1  UNL1        0.0207
     15 C         140.9671  143.9775  170.2663 C.ar    1  UNL1        0.0984
     16 N         142.4236  143.9059  170.6175 N.ar    1  UNL1       -0.2481
     17 C         139.1482  137.8842  162.2588 C.2     1  UNL1        0.2456
     18 N         137.8060  137.6682  161.6250 N.am    1  UNL1       -0.3252
     19 O         140.3993  137.6239  161.4732 O.2     1  UNL1       -0.2703
     20 H         136.9849  137.8390  162.1406 H       1  UNL1        0.1453
     21 H         137.7461  137.3555  160.6934 H       1  UNL1        0.1453
     22 N         140.9481  140.1804  162.9577 N.pl3   1  UNL1       -0.3327
     23 H         140.5208  140.4463  162.1116 H       1  UNL1        0.1468
     24 C         142.4079  140.4468  163.1769 C.3     1  UNL1        0.0702
     25 C         143.4268  139.4478  163.6391 C.3     1  UNL1        0.0208
     26 C         144.7537  140.1425  163.7202 C.3     1  UNL1        0.0160
     27 C         144.5548  141.5710  163.3081 C.3     1  UNL1        0.0404
     28 C         146.0274  141.6867  163.5692 C.3     1  UNL1        0.0156
     29 N         144.6638  143.0237  162.9506 N.3     1  UNL1       -0.3231
     30 C         143.1051  141.7591  162.9723 C.3     1  UNL1        0.0282
     31 C         143.5171  143.1725  162.6849 C.3     1  UNL1        0.0029
     32 C         141.7414  142.2426  162.5764 C.3     1  UNL1        0.0029
     33 H         145.6305  143.3296  163.0619 H       1  UNL1        0.1188
     34 H         144.0610  143.5712  163.5648 H       1  UNL1        0.1188
@<TRIPOS>BOND
     1    10    11    1
     2    11    12   ar
     3    12    13   ar
     4    13     1    1
     5     1     2   ar
     6     2     3   ar
     7     3     4   ar
     8     4    22    1
     9    24    22    1
    10    24    25    1
    11    25    26    1
    12    26    27    1
    13    27    28    1
    14    27    29    1
    15    27    30    1
    16    30    31    1
    17    30    32    1
    18     4     5   ar
    19     5    17    1
    20    17    18   am
    21    17    19    2
    22     5     6   ar
    23     6     7   ar
    24     7     8   ar
    25     8     9   ar
    26    13    14   ar
    27    14    15   ar
    28    15    16   ar
    29    16    11   ar
    30     9     1   ar
    31     8     3   ar
    32    30    24    1
    33    22    23    1
    34    29    33    1
    35    29    34    1
    36    18    20    1
    37    18    21    1
@<TRIPOS>MOLECULE
*****
 34 37 0 0 0
SMALL
GASTEIGER

@<TRIPOS>ATOM
      1 C         139.6447  140.3674  166.8330 C.ar    1  UNL1        0.0208
      2 C         139.6978  141.1775  165.5716 C.ar    1  UNL1        0.0219
      3 C         139.3703  140.2695  164.4235 C.ar    1  UNL1        0.0961
      4 C         139.2717  140.5141  162.9469 C.ar    1  UNL1        0.0685
      5 C         138.9176  139.3874  162.0221 C.ar    1  UNL1        0.0885
      6 C         138.6621  138.0163  162.5738 C.ar    1  UNL1        0.1263
      7 N         138.7607  137.7716  164.0504 N.ar    1  UNL1       -0.1633
      8 N         139.1148  138.8982  164.9753 N.ar    1  UNL1       -0.2270
      9 C         139.2844  138.9588  166.4644 C.ar    1  UNL1        0.1004
     10 C         140.5044  144.3282  170.0846 C.3     1  UNL1        0.0521
     11 C         140.3359  142.8571  169.8454 C.ar    1  UNL1        0.0594
     12 C         140.0746  142.3478  168.4589 C.ar    1  UNL1        0.0148
     13 C         139.9061  140.8766  168.2195 C.ar    1  UNL1        0.0043
     14 C         139.9990  139.9147  169.3666 C.ar    1  UNL1        0.0207
     15 C         140.2603  140.4240  170.7532 C.ar    1  UNL1        0.0984
     16 N         140.4288  141.8951  170.9925 N.ar    1  UNL1       -0.2481
     17 C         138.8189  139.6321  160.5453 C.2     1  UNL1        0.2456
     18 N         139.4606  138.6775  159.5825 N.am    1  UNL1       -0.3252
     19 O         138.0787  140.8313  160.0316 O.2     1  UNL1       -0.2703
     20 H         139.9464  137.8904  159.9197 H       1  UNL1        0.1453
     21 H         139.3959  138.8381  158.6133 H       1  UNL1        0.1453
     22 N         139.5272  141.8854  162.3951 N.pl3   1  UNL1       -0.3327
     23 H         138.7877  142.4039  162.0032 H       1  UNL1        0.1468
     24 C         140.9093  142.4664  162.4403 C.3     1  UNL1        0.0702
     25 C         142.1805  141.7448  162.1039 C.3     1  UNL1        0.0208
     26 C         143.3198  142.7035  162.2856 C.3     1  UNL1        0.0160
     27 C         142.7526  144.0176  162.7343 C.3     1  UNL1        0.0404
     28 C         144.1865  144.4582  162.7324 C.3     1  UNL1        0.0156
     29 N         142.4852  145.4239  163.1825 N.3     1  UNL1       -0.3231
     30 C         141.2629  143.8711  162.8299 C.3     1  UNL1        0.0282
     31 C         141.3069  145.3081  163.2582 C.3     1  UNL1        0.0029
     32 C         139.7823  144.0250  163.0150 C.3     1  UNL1        0.0029
     33 H         143.3670  145.9318  163.2527 H       1  UNL1        0.1188
     34 H         142.0279  145.4090  164.0942 H       1  UNL1        0.1188
@<TRIPOS>BOND
     1    10    11    1
     2    11    12   ar
     3    12    13   ar
     4    13     1    1
     5     1     2   ar
     6     2     3   ar
     7     3     4   ar
     8     4    22    1
     9    24    22    1
    10    24    25    1
    11    25    26    1
    12    26    27    1
    13    27    28    1
    14    27    29    1
    15    27    30    1
    16    30    31    1
    17    30    32    1
    18     4     5   ar
    19     5    17    1
    20    17    18   am
    21    17    19    2
    22     5     6   ar
    23     6     7   ar
    24     7     8   ar
    25     8     9   ar
    26    13    14   ar
    27    14    15   ar
    28    15    16   ar
    29    16    11   ar
    30     9     1   ar
    31     8     3   ar
    32    30    24    1
    33    22    23    1
    34    29    33    1
    35    29    34    1
    36    18    20    1
    37    18    21    1
@<TRIPOS>MOLECULE
*****
 34 37 0 0 0
SMALL
GASTEIGER

@<TRIPOS>ATOM
      1 C         140.5855  142.8970  166.7476 C.ar    1  UNL1        0.0208
      2 C         141.5234  142.8110  165.5802 C.ar    1  UNL1        0.0219
      3 C         140.8942  143.5337  164.4261 C.ar    1  UNL1        0.0961
      4 C         141.3580  143.7755  163.0202 C.ar    1  UNL1        0.0685
      5 C         140.4951  144.5500  162.0686 C.ar    1  UNL1        0.0885
      6 C         139.1685  145.0826  162.5228 C.ar    1  UNL1        0.1263
      7 N         138.7046  144.8407  163.9286 N.ar    1  UNL1       -0.1633
      8 N         139.5675  144.0662  164.8802 N.ar    1  UNL1       -0.2270
      9 C         139.3767  143.6727  166.3151 C.ar    1  UNL1        0.1004
     10 C         142.4039  139.0624  169.7458 C.3     1  UNL1        0.0521
     11 C         141.7251  140.3928  169.6079 C.ar    1  UNL1        0.0594
     12 C         141.4946  140.9797  168.2468 C.ar    1  UNL1        0.0148
     13 C         140.8159  142.3102  168.1087 C.ar    1  UNL1        0.0043
     14 C         140.3675  143.0539  169.3318 C.ar    1  UNL1        0.0207
     15 C         140.5979  142.4670  170.6929 C.ar    1  UNL1        0.0984
     16 N         141.2767  141.1365  170.8309 N.ar    1  UNL1       -0.2481
     17 C         140.9589  144.7920  160.6627 C.2     1  UNL1        0.2456
     18 N         139.9606  145.0981  159.5858 N.am    1  UNL1       -0.3252
     19 O         142.4210  144.7277  160.3338 O.2     1  UNL1       -0.2703
     20 H         139.0010  145.1402  159.8017 H       1  UNL1        0.1453
     21 H         140.2650  145.2568  158.6631 H       1  UNL1        0.1453
     22 N         142.6847  143.2430  162.5660 N.pl3   1  UNL1       -0.3327
     23 H         143.4509  143.8527  162.4632 H       1  UNL1        0.1468
     24 C         142.8440  141.7815  162.2682 C.3     1  UNL1        0.0702
     25 C         141.9944  140.9748  161.3316 C.3     1  UNL1        0.0208
     26 C         142.5062  139.5648  161.3394 C.3     1  UNL1        0.0160
     27 C         143.6722  139.5002  162.2808 C.3     1  UNL1        0.0404
     28 C         143.7088  138.0534  161.8863 C.3     1  UNL1        0.0156
     29 N         144.8458  139.1330  163.1397 N.3     1  UNL1       -0.3231
     30 C         143.8810  140.8701  162.8549 C.3     1  UNL1        0.0282
     31 C         145.0110  140.2166  163.5938 C.3     1  UNL1        0.0029
     32 C         144.3260  142.1035  163.5834 C.3     1  UNL1        0.0029
     33 H         145.0563  138.1419  163.0222 H       1  UNL1        0.1188
     34 H         144.6232  139.3197  164.1174 H       1  UNL1        0.1188
@<TRIPOS>BOND
     1    10    11    1
     2    11    12   ar
     3    12    13   ar
     4    13     1    1
     5     1     2   ar
     6     2     3   ar
     7     3     4   ar
     8     4    22    1
     9    24    22    1
    10    24    25    1
    11    25    26    1
    12    26    27    1
    13    27    28    1
    14    27    29    1
    15    27    30    1
    16    30    31    1
    17    30    32    1
    18     4     5   ar
    19     5    17    1
    20    17    18   am
    21    17    19    2
    22     5     6   ar
    23     6     7   ar
    24     7     8   ar
    25     8     9   ar
    26    13    14   ar
    27    14    15   ar
    28    15    16   ar
    29    16    11   ar
    30     9     1   ar
    31     8     3   ar
    32    30    24    1
    33    22    23    1
    34    29    33    1
    35    29    34    1
    36    18    20    1
    37    18    21    1
@<TRIPOS>MOLECULE
*****
 34 37 0 0 0
SMALL
GASTEIGER

@<TRIPOS>ATOM
      1 C         141.5541  140.5688  166.8689 C.ar    1  UNL1        0.0208
      2 C         140.8783  140.8403  165.5576 C.ar    1  UNL1        0.0219
      3 C         141.6997  140.2081  164.4733 C.ar    1  UNL1        0.0961
      4 C         141.5228  140.1498  162.9849 C.ar    1  UNL1        0.0685
      5 C         142.5295  139.4294  162.1377 C.ar    1  UNL1        0.0885
      6 C         143.7128  138.7672  162.7788 C.ar    1  UNL1        0.1263
      7 N         143.8896  138.8255  164.2672 N.ar    1  UNL1       -0.1633
      8 N         142.8831  139.5459  165.1144 N.ar    1  UNL1       -0.2270
      9 C         142.7931  139.7688  166.5951 C.ar    1  UNL1        0.1004
     10 C         140.2318  144.3918  170.1302 C.3     1  UNL1        0.0521
     11 C         140.4139  142.9299  169.8481 C.ar    1  UNL1        0.0594
     12 C         140.8930  142.4803  168.4996 C.ar    1  UNL1        0.0148
     13 C         141.0751  141.0184  168.2174 C.ar    1  UNL1        0.0043
     14 C         140.7782  140.0060  169.2837 C.ar    1  UNL1        0.0207
     15 C         140.2992  140.4557  170.6322 C.ar    1  UNL1        0.0984
     16 N         140.1170  141.9176  170.9144 N.ar    1  UNL1       -0.2481
     17 C         142.3526  139.3711  160.6492 C.2     1  UNL1        0.2456
     18 N         143.5247  139.6120  159.7447 N.am    1  UNL1       -0.3252
     19 O         141.0037  139.0719  160.0653 O.2     1  UNL1       -0.2703
     20 H         144.4101  139.8084  160.1279 H       1  UNL1        0.1453
     21 H         143.4087  139.5738  158.7678 H       1  UNL1        0.1453
     22 N         140.3394  140.8120  162.3436 N.pl3   1  UNL1       -0.3327
     23 H         139.5700  140.2708  162.0533 H       1  UNL1        0.1468
     24 C         140.3285  142.2987  162.1448 C.3     1  UNL1        0.0702
     25 C         141.4704  143.1290  161.6384 C.3     1  UNL1        0.0208
     26 C         141.0213  144.5596  161.5982 C.3     1  UNL1        0.0160
     27 C         139.6018  144.6135  162.0797 C.3     1  UNL1        0.0404
     28 C         139.7392  146.0865  161.8317 C.3     1  UNL1        0.0156
     29 N         138.2110  144.9753  162.5095 N.3     1  UNL1       -0.3231
     30 C         139.1735  143.2162  162.4176 C.3     1  UNL1        0.0282
     31 C         137.8722  143.8702  162.7767 C.3     1  UNL1        0.0029
     32 C         138.4733  141.9556  162.8306 C.3     1  UNL1        0.0029
     33 H         138.0781  145.9825  162.4180 H       1  UNL1        0.1188
     34 H         138.0735  144.7012  163.4823 H       1  UNL1        0.1188
@<TRIPOS>BOND
     1    10    11    1
     2    11    12   ar
     3    12    13   ar
     4    13     1    1
     5     1     2   ar
     6     2     3   ar
     7     3     4   ar
     8     4    22    1
     9    24    22    1
    10    24    25    1
    11    25    26    1
    12    26    27    1
    13    27    28    1
    14    27    29    1
    15    27    30    1
    16    30    31    1
    17    30    32    1
    18     4     5   ar
    19     5    17    1
    20    17    18   am
    21    17    19    2
    22     5     6   ar
    23     6     7   ar
    24     7     8   ar
    25     8     9   ar
    26    13    14   ar
    27    14    15   ar
    28    15    16   ar
    29    16    11   ar
    30     9     1   ar
    31     8     3   ar
    32    30    24    1
    33    22    23    1
    34    29    33    1
    35    29    34    1
    36    18    20    1
    37    18    21    1
@<TRIPOS>MOLECULE
*****
 34 37 0 0 0
SMALL
GASTEIGER

@<TRIPOS>ATOM
      1 C         139.7537  139.1309  164.1760 C.ar    1  UNL1        0.0208
      2 C         141.0646  139.6653  163.6800 C.ar    1  UNL1        0.0219
      3 C         141.1393  139.4124  162.2034 C.ar    1  UNL1        0.0961
      4 C         142.1956  139.7218  161.1843 C.ar    1  UNL1        0.0685
      5 C         141.9871  139.3405  159.7486 C.ar    1  UNL1        0.0885
      6 C         140.7225  138.6498  159.3320 C.ar    1  UNL1        0.1263
      7 N         139.6662  138.3404  160.3511 N.ar    1  UNL1       -0.1633
      8 N         139.8746  138.7217  161.7868 N.ar    1  UNL1       -0.2270
      9 C         139.0183  138.5477  163.0060 C.ar    1  UNL1        0.1004
     10 C         140.2498  140.8336  169.0602 C.3     1  UNL1        0.0521
     11 C         139.5122  140.0238  168.0354 C.ar    1  UNL1        0.0594
     12 C         140.0017  139.9822  166.6181 C.ar    1  UNL1        0.0148
     13 C         139.2642  139.1724  165.5933 C.ar    1  UNL1        0.0043
     14 C         138.0371  138.4041  165.9857 C.ar    1  UNL1        0.0207
     15 C         137.5476  138.4456  167.4030 C.ar    1  UNL1        0.0984
     16 N         138.2852  139.2555  168.4279 N.ar    1  UNL1       -0.2481
     17 C         143.0435  139.6499  158.7294 C.2     1  UNL1        0.2456
     18 N         143.4443  138.6102  157.7253 N.am    1  UNL1       -0.3252
     19 O         143.6989  140.9990  158.7145 O.2     1  UNL1       -0.2703
     20 H         143.0140  137.7247  157.7351 H       1  UNL1        0.1453
     21 H         144.1375  138.8133  157.0564 H       1  UNL1        0.1453
     22 N         143.4603  140.4125  161.6009 N.pl3   1  UNL1       -0.3327
     23 H         144.3242  139.9468  161.5228 H       1  UNL1        0.1468
     24 C         143.4087  141.8128  162.1362 C.3     1  UNL1        0.0702
     25 C         142.6789  142.9674  161.5164 C.3     1  UNL1        0.0208
     26 C         142.8970  144.1724  162.3825 C.3     1  UNL1        0.0160
     27 C         143.7616  143.7626  163.5377 C.3     1  UNL1        0.0404
     28 C         143.6200  145.1980  163.9494 C.3     1  UNL1        0.0156
     29 N         144.5966  143.6528  164.7790 N.3     1  UNL1       -0.3231
     30 C         144.0779  142.3042  163.3855 C.3     1  UNL1        0.0282
     31 C         144.8468  142.4993  164.6587 C.3     1  UNL1        0.0029
     32 C         144.5548  140.8867  163.4994 C.3     1  UNL1        0.0029
     33 H         144.6383  144.5607  165.2421 H       1  UNL1        0.1188
     34 H         145.5396  143.3550  164.5291 H       1  UNL1        0.1188
@<TRIPOS>BOND
     1    10    11    1
     2    11    12   ar
     3    12    13   ar
     4    13     1    1
     5     1     2   ar
     6     2     3   ar
     7     3     4   ar
     8     4    22    1
     9    24    22    1
    10    24    25    1
    11    25    26    1
    12    26    27    1
    13    27    28    1
    14    27    29    1
    15    27    30    1
    16    30    31    1
    17    30    32    1
    18     4     5   ar
    19     5    17    1
    20    17    18   am
    21    17    19    2
    22     5     6   ar
    23     6     7   ar
    24     7     8   ar
    25     8     9   ar
    26    13    14   ar
    27    14    15   ar
    28    15    16   ar
    29    16    11   ar
    30     9     1   ar
    31     8     3   ar
    32    30    24    1
    33    22    23    1
    34    29    33    1
    35    29    34    1
    36    18    20    1
    37    18    21    1
