@<TRIPOS>MOLECULE
*****
 43 49 0 0 0
SMALL
GASTEIGER

@<TRIPOS>ATOM
      1 N         142.5742  140.7555  165.8031 N.3     1  UNL1       -0.2676
      2 C         141.4059  141.4772  165.1996 C.3     1  UNL1        0.0746
      3 C         141.4316  141.8663  163.7512 C.3     1  UNL1        0.0449
      4 C         142.6256  141.5339  162.9064 C.3     1  UNL1        0.1391
      5 C         143.7939  140.8122  163.5099 C.3     1  UNL1        0.0449
      6 C         143.7682  140.4230  164.9583 C.3     1  UNL1        0.0746
      7 C         143.7442  141.2702  161.9423 C.2     1  UNL1        0.2529
      8 O         145.0333  140.5711  162.2574 O.2     1  UNL1       -0.2724
      9 N         143.3472  141.8285  160.6078 N.am    1  UNL1       -0.1907
     10 C         141.9833  142.4371  160.7471 C.2     1  UNL1        0.3219
     11 O         141.2024  143.1097  159.6573 O.2     1  UNL1       -0.2512
     12 N         141.5373  142.2550  162.1677 N.am    1  UNL1       -0.2222
     13 C         140.2323  142.7136  162.7478 C.ar    1  UNL1        0.1453
     14 C         139.0238  141.8287  162.6679 C.ar    1  UNL1        0.0922
     15 C         137.7188  142.2873  163.2481 C.ar    1  UNL1        0.2259
     16 O         136.5102  141.4025  163.1682 O.3     1  UNL1       -0.4919
     17 N         137.6222  143.6309  163.9082 N.ar    1  UNL1       -0.1894
     18 C         138.8308  144.5158  163.9881 C.ar    1  UNL1        0.2027
     19 N         140.1358  144.0571  163.4079 N.ar    1  UNL1       -0.2084
     20 H         136.5705  140.5632  162.7558 H       1  UNL1        0.2938
     21 C         144.1696  141.7856  159.3541 C.ar    1  UNL1        0.0622
     22 C         145.2401  142.8108  159.1240 C.ar    1  UNL1        0.0154
     23 C         146.0625  142.7679  157.8703 C.ar    1  UNL1        0.0013
     24 C         145.8146  141.6998  156.8468 C.ar    1  UNL1        0.0001
     25 C         144.7441  140.6746  157.0769 C.ar    1  UNL1        0.0013
     26 C         143.9216  140.7175  158.3306 C.ar    1  UNL1        0.0154
     27 C         146.6370  141.6570  155.5932 C.ar    1  UNL1        0.0015
     28 C         145.9814  141.3668  154.2756 C.ar    1  UNL1        0.0006
     29 C         146.8039  141.3239  153.0219 C.ar    1  UNL1        0.0080
     30 C         148.2820  141.5712  153.0857 C.ar    1  UNL1        0.0485
     31 S         149.3426  141.5938  152.0253 S.2     1  UNL1       -0.0645
     32 C         150.6537  141.8979  152.6874 C.ar    1  UNL1        0.1345
     33 N         150.4034  142.0633  154.1571 N.ar    1  UNL1       -0.2363
     34 C         148.9376  141.8614  154.4034 C.ar    1  UNL1        0.0879
     35 C         148.1151  141.9043  155.6570 C.ar    1  UNL1        0.0196
     36 C         142.5485  140.3663  167.2516 C.3     1  UNL1        0.1183
     37 C         139.6843  139.8220  167.9591 C.3     1  UNL1        0.0323
     38 C         140.4119  140.9645  168.6034 C.ar    1  UNL1       -0.0069
     39 C         139.7075  141.8348  169.6015 C.ar    1  UNL1       -0.0015
     40 C         140.4352  142.9773  170.2459 C.ar    1  UNL1        0.0203
     41 C         141.8672  143.2495  169.8922 C.ar    1  UNL1        0.0985
     42 N         142.5717  142.3791  168.8941 N.ar    1  UNL1       -0.2471
     43 C         141.8441  141.2366  168.2497 C.ar    1  UNL1        0.0712
@<TRIPOS>BOND
     1    37    38    1
     2    38    39   ar
     3    39    40   ar
     4    40    41   ar
     5    41    42   ar
     6    42    43   ar
     7    43    36    1
     8    36     1    1
     9     1     2    1
    10     2     3    1
    11     3     4    1
    12     4     5    1
    13     5     6    1
    14     4     7    1
    15     7     8    2
    16     7     9   am
    17     9    21    1
    18    21    22   ar
    19    22    23   ar
    20    23    24   ar
    21    24    27    1
    22    27    28   ar
    23    28    29   ar
    24    29    30   ar
    25    30    31   ar
    26    31    32   ar
    27    32    33   ar
    28    33    34   ar
    29    34    35   ar
    30    24    25   ar
    31    25    26   ar
    32     9    10   am
    33    10    11    2
    34    10    12   am
    35    12    13    1
    36    13    14   ar
    37    14    15   ar
    38    15    16    1
    39    15    17   ar
    40    17    18   ar
    41    18    19   ar
    42    43    38   ar
    43     6     1    1
    44    26    21   ar
    45    19    13   ar
    46    12     4    1
    47    35    27   ar
    48    34    30   ar
    49    16    20    1
@<TRIPOS>MOLECULE
*****
 43 49 0 0 0
SMALL
GASTEIGER

@<TRIPOS>ATOM
      1 N         140.3844  140.2169  165.6979 N.3     1  UNL1       -0.2676
      2 C         141.0154  141.4234  165.0686 C.3     1  UNL1        0.0746
      3 C         141.3823  141.4053  163.6143 C.3     1  UNL1        0.0449
      4 C         141.1181  140.1807  162.7893 C.3     1  UNL1        0.1391
      5 C         140.4870  138.9743  163.4186 C.3     1  UNL1        0.0449
      6 C         140.1201  138.9924  164.8729 C.3     1  UNL1        0.0746
      7 C         140.9155  139.0346  161.8431 C.2     1  UNL1        0.2529
      8 O         140.3106  137.7053  162.1850 O.2     1  UNL1       -0.2724
      9 N         141.4242  139.4511  160.4947 N.am    1  UNL1       -0.1907
     10 C         141.9412  140.8547  160.6077 C.2     1  UNL1        0.3219
     11 O         142.5418  141.6651  159.4976 O.2     1  UNL1       -0.2512
     12 N         141.7520  141.3057  162.0258 N.am    1  UNL1       -0.2222
     13 C         142.1302  142.6461  162.5826 C.ar    1  UNL1        0.1453
     14 C         141.1939  143.8092  162.4392 C.ar    1  UNL1        0.0922
     15 C         141.5722  145.1496  162.9961 C.ar    1  UNL1        0.2259
     16 O         140.6359  146.3127  162.8527 O.3     1  UNL1       -0.4919
     17 N         142.8868  145.3270  163.6965 N.ar    1  UNL1       -0.1894
     18 C         143.8231  144.1639  163.8399 C.ar    1  UNL1        0.2027
     19 N         143.4448  142.8235  163.2830 N.ar    1  UNL1       -0.2084
     20 H         139.8148  146.2019  162.4153 H       1  UNL1        0.2938
     21 C         141.4172  138.6115  159.2518 C.ar    1  UNL1        0.0622
     22 C         140.1601  138.4769  158.4447 C.ar    1  UNL1        0.0154
     23 C         140.1531  137.6373  157.2018 C.ar    1  UNL1        0.0013
     24 C         141.4032  136.9322  156.7659 C.ar    1  UNL1        0.0001
     25 C         142.6603  137.0668  157.5730 C.ar    1  UNL1        0.0013
     26 C         142.6674  137.9064  158.8159 C.ar    1  UNL1        0.0154
     27 C         141.3961  136.0926  155.5229 C.ar    1  UNL1        0.0015
     28 C         140.6997  136.5852  154.2891 C.ar    1  UNL1        0.0006
     29 C         140.6926  135.7455  153.0461 C.ar    1  UNL1        0.0080
     30 C         141.3821  134.4134  153.0369 C.ar    1  UNL1        0.0485
     31 S         141.5416  133.3730  151.9682 S.2     1  UNL1       -0.0645
     32 C         142.3366  132.2377  152.5414 C.ar    1  UNL1        0.1345
     33 N         142.6684  132.5762  153.9645 N.ar    1  UNL1       -0.2363
     34 C         142.0786  133.9209  154.2708 C.ar    1  UNL1        0.0879
     35 C         142.0856  134.7605  155.5138 C.ar    1  UNL1        0.0196
     36 C         140.0174  140.2350  167.1523 C.3     1  UNL1        0.1183
     37 C         142.6903  139.2346  168.0770 C.3     1  UNL1        0.0323
     38 C         142.1641  140.5452  168.5825 C.ar    1  UNL1       -0.0069
     39 C         142.9743  141.3555  169.5504 C.ar    1  UNL1       -0.0015
     40 C         142.4481  142.6661  170.0560 C.ar    1  UNL1        0.0203
     41 C         141.1117  143.1663  169.5936 C.ar    1  UNL1        0.0985
     42 N         140.3014  142.3559  168.6257 N.ar    1  UNL1       -0.2471
     43 C         140.8276  141.0454  168.1201 C.ar    1  UNL1        0.0712
@<TRIPOS>BOND
     1    37    38    1
     2    38    39   ar
     3    39    40   ar
     4    40    41   ar
     5    41    42   ar
     6    42    43   ar
     7    43    36    1
     8    36     1    1
     9     1     2    1
    10     2     3    1
    11     3     4    1
    12     4     5    1
    13     5     6    1
    14     4     7    1
    15     7     8    2
    16     7     9   am
    17     9    21    1
    18    21    22   ar
    19    22    23   ar
    20    23    24   ar
    21    24    27    1
    22    27    28   ar
    23    28    29   ar
    24    29    30   ar
    25    30    31   ar
    26    31    32   ar
    27    32    33   ar
    28    33    34   ar
    29    34    35   ar
    30    24    25   ar
    31    25    26   ar
    32     9    10   am
    33    10    11    2
    34    10    12   am
    35    12    13    1
    36    13    14   ar
    37    14    15   ar
    38    15    16    1
    39    15    17   ar
    40    17    18   ar
    41    18    19   ar
    42    43    38   ar
    43     6     1    1
    44    26    21   ar
    45    19    13   ar
    46    12     4    1
    47    35    27   ar
    48    34    30   ar
    49    16    20    1
@<TRIPOS>MOLECULE
*****
 43 49 0 0 0
SMALL
GASTEIGER

@<TRIPOS>ATOM
      1 N         139.8911  145.8356  155.8911 N.3     1  UNL1       -0.2676
      2 C         139.2060  144.5075  155.7620 C.3     1  UNL1        0.0746
      3 C         139.1206  143.5896  156.9453 C.3     1  UNL1        0.0449
      4 C         139.7203  143.9998  158.2576 C.3     1  UNL1        0.1391
      5 C         140.4054  145.3279  158.3866 C.3     1  UNL1        0.0449
      6 C         140.4908  146.2458  157.2034 C.3     1  UNL1        0.0746
      7 C         140.2702  144.2722  159.6263 C.2     1  UNL1        0.2529
      8 O         141.0020  145.5103  160.0521 O.2     1  UNL1       -0.2724
      9 N         139.9597  143.0890  160.4946 N.am    1  UNL1       -0.1907
     10 C         139.2179  142.0853  159.6624 C.2     1  UNL1        0.3219
     11 O         138.7128  140.7528  160.1305 O.2     1  UNL1       -0.2512
     12 N         139.0699  142.6482  158.2799 N.am    1  UNL1       -0.2222
     13 C         138.3909  141.9774  157.1228 C.ar    1  UNL1        0.1453
     14 C         136.9255  142.1928  156.8856 C.ar    1  UNL1        0.0922
     15 C         136.2465  141.5220  155.7284 C.ar    1  UNL1        0.2259
     16 O         134.7812  141.7374  155.4912 O.3     1  UNL1       -0.4919
     17 N         137.0328  140.6357  154.8085 N.ar    1  UNL1       -0.1894
     18 C         138.4982  140.4203  155.0457 C.ar    1  UNL1        0.2027
     19 N         139.1772  141.0911  156.2028 N.ar    1  UNL1       -0.2084
     20 H         134.2899  142.2910  156.0658 H       1  UNL1        0.2938
     21 C         140.3266  142.9362  161.9409 C.ar    1  UNL1        0.0622
     22 C         139.5183  143.6299  162.9970 C.ar    1  UNL1        0.0154
     23 C         139.8852  143.4772  164.4434 C.ar    1  UNL1        0.0013
     24 C         141.0604  142.6308  164.8337 C.ar    1  UNL1        0.0001
     25 C         141.8687  141.9371  163.7776 C.ar    1  UNL1        0.0013
     26 C         141.5018  142.0898  162.3312 C.ar    1  UNL1        0.0154
     27 C         141.4272  142.4781  166.2801 C.ar    1  UNL1        0.0015
     28 C         142.8693  142.3843  166.6821 C.ar    1  UNL1        0.0006
     29 C         143.2363  142.2315  168.1286 C.ar    1  UNL1        0.0080
     30 C         142.1611  142.1727  169.1729 C.ar    1  UNL1        0.0485
     31 S         142.2178  142.0275  170.6648 S.2     1  UNL1       -0.0645
     32 C         140.8109  142.0316  171.1847 C.ar    1  UNL1        0.1345
     33 N         139.8846  142.1794  170.0142 N.ar    1  UNL1       -0.2363
     34 C         140.7190  142.2665  168.7708 C.ar    1  UNL1        0.0879
     35 C         140.3521  142.4192  167.3244 C.ar    1  UNL1        0.0196
     36 C         139.9765  146.7536  154.7078 C.3     1  UNL1        0.1183
     37 C         140.7607  148.7451  152.6057 C.3     1  UNL1        0.0323
     38 C         139.9482  149.1833  153.7880 C.ar    1  UNL1       -0.0069
     39 C         139.5277  150.6171  153.9192 C.ar    1  UNL1       -0.0015
     40 C         138.7152  151.0552  155.1016 C.ar    1  UNL1        0.0203
     41 C         138.3231  150.0595  156.1526 C.ar    1  UNL1        0.0985
     42 N         138.7436  148.6256  156.0214 N.ar    1  UNL1       -0.2471
     43 C         139.5561  148.1874  154.8391 C.ar    1  UNL1        0.0712
@<TRIPOS>BOND
     1    37    38    1
     2    38    39   ar
     3    39    40   ar
     4    40    41   ar
     5    41    42   ar
     6    42    43   ar
     7    43    36    1
     8    36     1    1
     9     1     2    1
    10     2     3    1
    11     3     4    1
    12     4     5    1
    13     5     6    1
    14     4     7    1
    15     7     8    2
    16     7     9   am
    17     9    21    1
    18    21    22   ar
    19    22    23   ar
    20    23    24   ar
    21    24    27    1
    22    27    28   ar
    23    28    29   ar
    24    29    30   ar
    25    30    31   ar
    26    31    32   ar
    27    32    33   ar
    28    33    34   ar
    29    34    35   ar
    30    24    25   ar
    31    25    26   ar
    32     9    10   am
    33    10    11    2
    34    10    12   am
    35    12    13    1
    36    13    14   ar
    37    14    15   ar
    38    15    16    1
    39    15    17   ar
    40    17    18   ar
    41    18    19   ar
    42    43    38   ar
    43     6     1    1
    44    26    21   ar
    45    19    13   ar
    46    12     4    1
    47    35    27   ar
    48    34    30   ar
    49    16    20    1
@<TRIPOS>MOLECULE
*****
 43 49 0 0 0
SMALL
GASTEIGER

@<TRIPOS>ATOM
      1 N         142.4713  141.2433  164.8049 N.3     1  UNL1       -0.2676
      2 C         141.4324  142.1315  164.1871 C.3     1  UNL1        0.0746
      3 C         140.9073  141.8294  162.8149 C.3     1  UNL1        0.0449
      4 C         141.4212  140.6391  162.0605 C.3     1  UNL1        0.1391
      5 C         142.4601  139.7509  162.6783 C.3     1  UNL1        0.0449
      6 C         142.9852  140.0530  164.0505 C.3     1  UNL1        0.0746
      7 C         141.8379  139.4907  161.1901 C.2     1  UNL1        0.2529
      8 O         142.8528  138.4428  161.5391 O.2     1  UNL1       -0.2724
      9 N         141.0615  139.5743  159.9093 N.am    1  UNL1       -0.1907
     10 C         140.1649  140.7743  159.9882 C.2     1  UNL1        0.3219
     11 O         139.2132  141.2353  158.9244 O.2     1  UNL1       -0.2512
     12 N         140.3872  141.4324  161.3177 N.am    1  UNL1       -0.2222
     13 C         139.6969  142.6670  161.8168 C.ar    1  UNL1        0.1453
     14 C         140.3392  144.0104  161.6363 C.ar    1  UNL1        0.0922
     15 C         139.6488  145.2450  162.1354 C.ar    1  UNL1        0.2259
     16 O         140.2912  146.5884  161.9549 O.3     1  UNL1       -0.4919
     17 N         138.3160  145.1362  162.8151 N.ar    1  UNL1       -0.1894
     18 C         137.6737  143.7928  162.9955 C.ar    1  UNL1        0.2027
     19 N         138.3641  142.5582  162.4964 N.ar    1  UNL1       -0.2084
     20 H         141.1237  146.6564  161.5304 H       1  UNL1        0.2938
     21 C         141.1636  138.6245  158.7528 C.ar    1  UNL1        0.0622
     22 C         139.9342  138.2488  157.9801 C.ar    1  UNL1        0.0154
     23 C         140.0364  137.2990  156.8235 C.ar    1  UNL1        0.0013
     24 C         141.3680  136.7251  156.4397 C.ar    1  UNL1        0.0001
     25 C         142.5975  137.1009  157.2125 C.ar    1  UNL1        0.0013
     26 C         142.4953  138.0506  158.3690 C.ar    1  UNL1        0.0154
     27 C         141.4702  135.7754  155.2832 C.ar    1  UNL1        0.0015
     28 C         140.8256  136.1174  153.9727 C.ar    1  UNL1        0.0006
     29 C         140.9278  135.1677  152.8161 C.ar    1  UNL1        0.0080
     30 C         141.6745  133.8759  152.9701 C.ar    1  UNL1        0.0485
     31 S         141.9415  132.7508  152.0147 S.2     1  UNL1       -0.0645
     32 C         142.7510  131.7135  152.7347 C.ar    1  UNL1        0.1345
     33 N         142.9844  132.1975  154.1351 N.ar    1  UNL1       -0.2363
     34 C         142.3191  133.5339  154.2807 C.ar    1  UNL1        0.0879
     35 C         142.2169  134.4836  155.4372 C.ar    1  UNL1        0.0196
     36 C         142.9964  141.5454  166.1772 C.3     1  UNL1        0.1183
     37 C         142.9231  138.9200  167.6271 C.3     1  UNL1        0.0323
     38 C         142.0722  140.0615  168.0993 C.ar    1  UNL1       -0.0069
     39 C         141.1847  139.8904  169.2964 C.ar    1  UNL1       -0.0015
     40 C         140.3339  141.0319  169.7685 C.ar    1  UNL1        0.0203
     41 C         140.3705  142.3445  169.0436 C.ar    1  UNL1        0.0985
     42 N         141.2580  142.5157  167.8465 N.ar    1  UNL1       -0.2471
     43 C         142.1089  141.3742  167.3743 C.ar    1  UNL1        0.0712
@<TRIPOS>BOND
     1    37    38    1
     2    38    39   ar
     3    39    40   ar
     4    40    41   ar
     5    41    42   ar
     6    42    43   ar
     7    43    36    1
     8    36     1    1
     9     1     2    1
    10     2     3    1
    11     3     4    1
    12     4     5    1
    13     5     6    1
    14     4     7    1
    15     7     8    2
    16     7     9   am
    17     9    21    1
    18    21    22   ar
    19    22    23   ar
    20    23    24   ar
    21    24    27    1
    22    27    28   ar
    23    28    29   ar
    24    29    30   ar
    25    30    31   ar
    26    31    32   ar
    27    32    33   ar
    28    33    34   ar
    29    34    35   ar
    30    24    25   ar
    31    25    26   ar
    32     9    10   am
    33    10    11    2
    34    10    12   am
    35    12    13    1
    36    13    14   ar
    37    14    15   ar
    38    15    16    1
    39    15    17   ar
    40    17    18   ar
    41    18    19   ar
    42    43    38   ar
    43     6     1    1
    44    26    21   ar
    45    19    13   ar
    46    12     4    1
    47    35    27   ar
    48    34    30   ar
    49    16    20    1
@<TRIPOS>MOLECULE
*****
 43 49 0 0 0
SMALL
GASTEIGER

@<TRIPOS>ATOM
      1 N         143.2816  137.6382  156.2329 N.3     1  UNL1       -0.2676
      2 C         143.7934  139.0295  156.0042 C.3     1  UNL1        0.0746
      3 C         143.8847  139.9928  157.1503 C.3     1  UNL1        0.0449
      4 C         143.4642  139.5649  158.5251 C.3     1  UNL1        0.1391
      5 C         142.9524  138.1736  158.7538 C.3     1  UNL1        0.0449
      6 C         142.8611  137.2102  157.6077 C.3     1  UNL1        0.0746
      7 C         143.0824  139.2813  159.9478 C.2     1  UNL1        0.2529
      8 O         142.5423  137.9847  160.4741 O.2     1  UNL1       -0.2724
      9 N         143.3356  140.5222  160.7518 N.am    1  UNL1       -0.1907
     10 C         143.8738  141.5726  159.8260 C.2     1  UNL1        0.3219
     11 O         144.2641  142.9693  160.2090 O.2     1  UNL1       -0.2512
     12 N         143.9533  140.9810  158.4499 N.am    1  UNL1       -0.2222
     13 C         144.4370  141.6821  157.2153 C.ar    1  UNL1        0.1453
     14 C         145.8970  141.6745  156.8716 C.ar    1  UNL1        0.0922
     15 C         146.3806  142.3757  155.6370 C.ar    1  UNL1        0.2259
     16 O         147.8407  142.3681  155.2933 O.3     1  UNL1       -0.4919
     17 N         145.4042  143.0847  154.7459 N.ar    1  UNL1       -0.1894
     18 C         143.9441  143.0923  155.0895 C.ar    1  UNL1        0.2027
     19 N         143.4605  142.3911  156.3242 N.ar    1  UNL1       -0.2084
     20 H         148.4507  141.9253  155.8499 H       1  UNL1        0.2938
     21 C         143.0931  140.6842  162.2231 C.ar    1  UNL1        0.0622
     22 C         144.1978  140.4101  163.2000 C.ar    1  UNL1        0.0154
     23 C         143.9554  140.5721  164.6713 C.ar    1  UNL1        0.0013
     24 C         142.6081  141.0082  165.1659 C.ar    1  UNL1        0.0001
     25 C         141.5033  141.2823  164.1890 C.ar    1  UNL1        0.0013
     26 C         141.7458  141.1203  162.7176 C.ar    1  UNL1        0.0154
     27 C         142.3656  141.1701  166.6372 C.ar    1  UNL1        0.0015
     28 C         143.1136  142.2158  167.4099 C.ar    1  UNL1        0.0006
     29 C         142.8711  142.3779  168.8814 C.ar    1  UNL1        0.0080
     30 C         141.8807  141.4941  169.5800 C.ar    1  UNL1        0.0485
     31 S         141.4348  141.4210  171.0104 S.2     1  UNL1       -0.0645
     32 C         140.4113  140.3301  171.1216 C.ar    1  UNL1        0.1345
     33 N         140.2247  139.7290  169.7601 N.ar    1  UNL1       -0.2363
     34 C         141.1327  140.4484  168.8073 C.ar    1  UNL1        0.0879
     35 C         141.3752  140.2864  167.3359 C.ar    1  UNL1        0.0196
     36 C         143.1903  136.6748  155.0868 C.3     1  UNL1        0.1183
     37 C         140.4793  135.5461  154.4731 C.3     1  UNL1        0.0323
     38 C         141.5496  134.6608  155.0395 C.ar    1  UNL1       -0.0069
     39 C         141.2644  133.2113  155.2991 C.ar    1  UNL1       -0.0015
     40 C         142.3347  132.3261  155.8655 C.ar    1  UNL1        0.0203
     41 C         143.6901  132.8904  156.1724 C.ar    1  UNL1        0.0985
     42 N         143.9754  134.3400  155.9128 N.ar    1  UNL1       -0.2471
     43 C         142.9051  135.2252  155.3464 C.ar    1  UNL1        0.0712
@<TRIPOS>BOND
     1    37    38    1
     2    38    39   ar
     3    39    40   ar
     4    40    41   ar
     5    41    42   ar
     6    42    43   ar
     7    43    36    1
     8    36     1    1
     9     1     2    1
    10     2     3    1
    11     3     4    1
    12     4     5    1
    13     5     6    1
    14     4     7    1
    15     7     8    2
    16     7     9   am
    17     9    21    1
    18    21    22   ar
    19    22    23   ar
    20    23    24   ar
    21    24    27    1
    22    27    28   ar
    23    28    29   ar
    24    29    30   ar
    25    30    31   ar
    26    31    32   ar
    27    32    33   ar
    28    33    34   ar
    29    34    35   ar
    30    24    25   ar
    31    25    26   ar
    32     9    10   am
    33    10    11    2
    34    10    12   am
    35    12    13    1
    36    13    14   ar
    37    14    15   ar
    38    15    16    1
    39    15    17   ar
    40    17    18   ar
    41    18    19   ar
    42    43    38   ar
    43     6     1    1
    44    26    21   ar
    45    19    13   ar
    46    12     4    1
    47    35    27   ar
    48    34    30   ar
    49    16    20    1
@<TRIPOS>MOLECULE
*****
 43 49 0 0 0
SMALL
GASTEIGER

@<TRIPOS>ATOM
      1 N         142.6803  142.4731  165.4314 N.3     1  UNL1       -0.2676
      2 C         141.3957  142.3595  164.6653 C.3     1  UNL1        0.0746
      3 C         141.4229  142.2182  163.1722 C.3     1  UNL1        0.0449
      4 C         142.7347  142.1907  162.4452 C.3     1  UNL1        0.1391
      5 C         144.0193  142.3044  163.2113 C.3     1  UNL1        0.0449
      6 C         143.9921  142.4456  164.7044 C.3     1  UNL1        0.0746
      7 C         143.9634  142.1479  161.5859 C.2     1  UNL1        0.2529
      8 O         145.3806  142.2389  162.0687 O.2     1  UNL1       -0.2724
      9 N         143.5260  141.9982  160.1588 N.am    1  UNL1       -0.1907
     10 C         142.0270  141.9485  160.1363 C.2     1  UNL1        0.3219
     11 O         141.1679  141.8050  158.9151 O.2     1  UNL1       -0.2512
     12 N         141.5379  142.0674  161.5493 N.am    1  UNL1       -0.2222
     13 C         140.1039  142.0638  161.9892 C.ar    1  UNL1        0.1453
     14 C         139.3490  143.3555  162.0967 C.ar    1  UNL1        0.0922
     15 C         137.9150  143.3517  162.5367 C.ar    1  UNL1        0.2259
     16 O         137.1601  144.6435  162.6441 O.3     1  UNL1       -0.4919
     17 N         137.2358  142.0563  162.8692 N.ar    1  UNL1       -0.1894
     18 C         137.9907  140.7645  162.7618 C.ar    1  UNL1        0.2027
     19 N         139.4247  140.7683  162.3218 N.ar    1  UNL1       -0.2084
     20 H         137.5843  145.4527  162.4364 H       1  UNL1        0.2938
     21 C         144.4291  141.9132  158.9642 C.ar    1  UNL1        0.0622
     22 C         145.5353  142.9107  158.7877 C.ar    1  UNL1        0.0154
     23 C         146.4383  142.8257  157.5930 C.ar    1  UNL1        0.0013
     24 C         146.2352  141.7432  156.5749 C.ar    1  UNL1        0.0001
     25 C         145.1290  140.7456  156.7513 C.ar    1  UNL1        0.0013
     26 C         144.2259  140.8306  157.9460 C.ar    1  UNL1        0.0154
     27 C         147.1383  141.6581  155.3802 C.ar    1  UNL1        0.0015
     28 C         146.5566  141.4458  154.0140 C.ar    1  UNL1        0.0006
     29 C         147.4597  141.3608  152.8192 C.ar    1  UNL1        0.0080
     30 C         148.9444  141.4881  152.9908 C.ar    1  UNL1        0.0485
     31 S         150.0758  141.4457  152.0069 S.2     1  UNL1       -0.0645
     32 C         151.3566  141.6318  152.7650 C.ar    1  UNL1        0.1345
     33 N         151.0169  141.7892  154.2175 N.ar    1  UNL1       -0.2363
     34 C         149.5261  141.7004  154.3571 C.ar    1  UNL1        0.0879
     35 C         148.6230  141.7854  155.5518 C.ar    1  UNL1        0.0196
     36 C         142.6531  142.6144  166.9245 C.3     1  UNL1        0.1183
     37 C         142.5927  142.8967  169.9106 C.3     1  UNL1        0.0323
     38 C         142.6523  141.5337  169.2872 C.ar    1  UNL1       -0.0069
     39 C         142.6816  140.3118  170.1567 C.ar    1  UNL1       -0.0015
     40 C         142.7411  138.9488  169.5333 C.ar    1  UNL1        0.0203
     41 C         142.7713  138.8077  168.0403 C.ar    1  UNL1        0.0985
     42 N         142.7420  140.0295  167.1706 N.ar    1  UNL1       -0.2471
     43 C         142.6825  141.3925  167.7941 C.ar    1  UNL1        0.0712
@<TRIPOS>BOND
     1    37    38    1
     2    38    39   ar
     3    39    40   ar
     4    40    41   ar
     5    41    42   ar
     6    42    43   ar
     7    43    36    1
     8    36     1    1
     9     1     2    1
    10     2     3    1
    11     3     4    1
    12     4     5    1
    13     5     6    1
    14     4     7    1
    15     7     8    2
    16     7     9   am
    17     9    21    1
    18    21    22   ar
    19    22    23   ar
    20    23    24   ar
    21    24    27    1
    22    27    28   ar
    23    28    29   ar
    24    29    30   ar
    25    30    31   ar
    26    31    32   ar
    27    32    33   ar
    28    33    34   ar
    29    34    35   ar
    30    24    25   ar
    31    25    26   ar
    32     9    10   am
    33    10    11    2
    34    10    12   am
    35    12    13    1
    36    13    14   ar
    37    14    15   ar
    38    15    16    1
    39    15    17   ar
    40    17    18   ar
    41    18    19   ar
    42    43    38   ar
    43     6     1    1
    44    26    21   ar
    45    19    13   ar
    46    12     4    1
    47    35    27   ar
    48    34    30   ar
    49    16    20    1
@<TRIPOS>MOLECULE
*****
 43 49 0 0 0
SMALL
GASTEIGER

@<TRIPOS>ATOM
      1 N         143.3888  142.6566  155.5160 N.3     1  UNL1       -0.2676
      2 C         142.1518  143.5023  155.5825 C.3     1  UNL1        0.0746
      3 C         141.4717  143.7342  156.8991 C.3     1  UNL1        0.0449
      4 C         142.0287  143.1204  158.1493 C.3     1  UNL1        0.1391
      5 C         143.2657  142.2746  158.0829 C.3     1  UNL1        0.0449
      6 C         143.9457  142.0427  156.7662 C.3     1  UNL1        0.0746
      7 C         142.4669  142.5750  159.4762 C.2     1  UNL1        0.2529
      8 O         143.6621  141.7019  159.7193 O.2     1  UNL1       -0.2724
      9 N         141.5000  143.0560  160.5173 N.am    1  UNL1       -0.1907
     10 C         140.4642  143.8987  159.8339 C.2     1  UNL1        0.3219
     11 O         139.3052  144.5816  160.4973 O.2     1  UNL1       -0.2512
     12 N         140.7909  143.9385  158.3704 N.am    1  UNL1       -0.2222
     13 C         140.0161  144.6682  157.3136 C.ar    1  UNL1        0.1453
     14 C         140.3019  146.1148  157.0382 C.ar    1  UNL1        0.0922
     15 C         139.5270  146.8444  155.9813 C.ar    1  UNL1        0.2259
     16 O         139.8129  148.2910  155.7060 O.3     1  UNL1       -0.4919
     17 N         138.4662  146.1276  155.1997 N.ar    1  UNL1       -0.1894
     18 C         138.1803  144.6811  155.4750 C.ar    1  UNL1        0.2027
     19 N         138.9552  143.9514  156.5319 N.ar    1  UNL1       -0.2084
     20 H         140.4755  148.7387  156.1942 H       1  UNL1        0.2938
     21 C         141.5586  142.7483  161.9843 C.ar    1  UNL1        0.0622
     22 C         141.3321  141.3460  162.4661 C.ar    1  UNL1        0.0154
     23 C         141.3907  141.0384  163.9330 C.ar    1  UNL1        0.0013
     24 C         141.6758  142.1329  164.9181 C.ar    1  UNL1        0.0001
     25 C         141.9023  143.5353  164.4362 C.ar    1  UNL1        0.0013
     26 C         141.8437  143.8430  162.9693 C.ar    1  UNL1        0.0154
     27 C         141.7344  141.8253  166.3850 C.ar    1  UNL1        0.0015
     28 C         142.9090  142.2790  167.2001 C.ar    1  UNL1        0.0006
     29 C         142.9676  141.9713  168.6671 C.ar    1  UNL1        0.0080
     30 C         141.8516  141.2099  169.3189 C.ar    1  UNL1        0.0485
     31 S         141.6340  140.7631  170.7342 S.2     1  UNL1       -0.0645
     32 C         140.3250  140.0332  170.7937 C.ar    1  UNL1        0.1345
     33 N         139.7335  140.0289  169.4152 N.ar    1  UNL1       -0.2363
     34 C         140.6770  140.7562  168.5037 C.ar    1  UNL1        0.0879
     35 C         140.6184  141.0638  167.0368 C.ar    1  UNL1        0.0196
     36 C         144.0689  142.4246  154.1993 C.3     1  UNL1        0.1183
     37 C         144.2505  145.1841  153.0365 C.3     1  UNL1        0.0323
     38 C         145.5017  144.4180  153.3485 C.ar    1  UNL1       -0.0069
     39 C         146.8437  145.0315  153.0792 C.ar    1  UNL1       -0.0015
     40 C         148.0949  144.2653  153.3913 C.ar    1  UNL1        0.0203
     41 C         148.0042  142.8856  153.9726 C.ar    1  UNL1        0.0985
     42 N         146.6621  142.2720  154.2420 N.ar    1  UNL1       -0.2471
     43 C         145.4109  143.0381  153.9299 C.ar    1  UNL1        0.0712
@<TRIPOS>BOND
     1    37    38    1
     2    38    39   ar
     3    39    40   ar
     4    40    41   ar
     5    41    42   ar
     6    42    43   ar
     7    43    36    1
     8    36     1    1
     9     1     2    1
    10     2     3    1
    11     3     4    1
    12     4     5    1
    13     5     6    1
    14     4     7    1
    15     7     8    2
    16     7     9   am
    17     9    21    1
    18    21    22   ar
    19    22    23   ar
    20    23    24   ar
    21    24    27    1
    22    27    28   ar
    23    28    29   ar
    24    29    30   ar
    25    30    31   ar
    26    31    32   ar
    27    32    33   ar
    28    33    34   ar
    29    34    35   ar
    30    24    25   ar
    31    25    26   ar
    32     9    10   am
    33    10    11    2
    34    10    12   am
    35    12    13    1
    36    13    14   ar
    37    14    15   ar
    38    15    16    1
    39    15    17   ar
    40    17    18   ar
    41    18    19   ar
    42    43    38   ar
    43     6     1    1
    44    26    21   ar
    45    19    13   ar
    46    12     4    1
    47    35    27   ar
    48    34    30   ar
    49    16    20    1
@<TRIPOS>MOLECULE
*****
 43 49 0 0 0
SMALL
GASTEIGER

@<TRIPOS>ATOM
      1 N         139.0753  139.0068  156.0791 N.3     1  UNL1       -0.2676
      2 C         140.4236  138.3544  156.0007 C.3     1  UNL1        0.0746
      3 C         141.2631  138.2166  157.2361 C.3     1  UNL1        0.0449
      4 C         140.7542  138.7313  158.5499 C.3     1  UNL1        0.1391
      5 C         139.4059  139.3837  158.6283 C.3     1  UNL1        0.0449
      6 C         138.5664  139.5214  157.3929 C.3     1  UNL1        0.0746
      7 C         140.3802  139.1955  159.9264 C.2     1  UNL1        0.2529
      8 O         139.1009  139.8789  160.3091 O.2     1  UNL1       -0.2724
      9 N         141.5100  138.8563  160.8530 N.am    1  UNL1       -0.1907
     10 C         142.5823  138.1824  160.0491 C.2     1  UNL1        0.3219
     11 O         143.8918  137.6750  160.5761 O.2     1  UNL1       -0.2512
     12 N         142.1153  138.1052  158.6258 N.am    1  UNL1       -0.2222
     13 C         142.8756  137.5070  157.4796 C.ar    1  UNL1        0.1453
     14 C         142.8225  136.0280  157.2347 C.ar    1  UNL1        0.0922
     15 C         143.5829  135.4299  156.0884 C.ar    1  UNL1        0.2259
     16 O         143.5298  133.9510  155.8435 O.3     1  UNL1       -0.4919
     17 N         144.3964  136.3106  155.1869 N.ar    1  UNL1       -0.1894
     18 C         144.4495  137.7895  155.4318 C.ar    1  UNL1        0.2027
     19 N         143.6892  138.3876  156.5781 N.ar    1  UNL1       -0.2084
     20 H         143.0216  133.4008  156.4066 H       1  UNL1        0.2938
     21 C         141.5589  139.1409  162.3249 C.ar    1  UNL1        0.0622
     22 C         141.6954  138.0119  163.3030 C.ar    1  UNL1        0.0154
     23 C         141.7442  138.2966  164.7749 C.ar    1  UNL1        0.0013
     24 C         141.6567  139.7101  165.2687 C.ar    1  UNL1        0.0001
     25 C         141.5202  140.8392  164.2906 C.ar    1  UNL1        0.0013
     26 C         141.4713  140.5546  162.8187 C.ar    1  UNL1        0.0154
     27 C         141.7056  139.9948  166.7407 C.ar    1  UNL1        0.0015
     28 C         142.6582  139.2395  167.6193 C.ar    1  UNL1        0.0006
     29 C         142.7071  139.5241  169.0913 C.ar    1  UNL1        0.0080
     30 C         141.8034  140.5640  169.6846 C.ar    1  UNL1        0.0485
     31 S         141.6284  141.0579  171.0901 S.2     1  UNL1       -0.0645
     32 C         140.5677  142.1184  171.0800 C.ar    1  UNL1        0.1345
     33 N         140.0871  142.2799  169.6683 N.ar    1  UNL1       -0.2363
     34 C         140.8508  141.3193  168.8058 C.ar    1  UNL1        0.0879
     35 C         140.8019  141.0347  167.3339 C.ar    1  UNL1        0.0196
     36 C         138.2357  139.1445  154.8437 C.3     1  UNL1        0.1183
     37 C         138.0404  142.1109  154.4406 C.3     1  UNL1        0.0323
     38 C         136.8032  141.3082  154.7145 C.ar    1  UNL1       -0.0069
     39 C         135.4684  141.9886  154.7868 C.ar    1  UNL1       -0.0015
     40 C         134.2313  141.1859  155.0606 C.ar    1  UNL1        0.0203
     41 C         134.3289  139.7028  155.2622 C.ar    1  UNL1        0.0985
     42 N         135.6637  139.0222  155.1898 N.ar    1  UNL1       -0.2471
     43 C         136.9009  139.8250  154.9160 C.ar    1  UNL1        0.0712
@<TRIPOS>BOND
     1    37    38    1
     2    38    39   ar
     3    39    40   ar
     4    40    41   ar
     5    41    42   ar
     6    42    43   ar
     7    43    36    1
     8    36     1    1
     9     1     2    1
    10     2     3    1
    11     3     4    1
    12     4     5    1
    13     5     6    1
    14     4     7    1
    15     7     8    2
    16     7     9   am
    17     9    21    1
    18    21    22   ar
    19    22    23   ar
    20    23    24   ar
    21    24    27    1
    22    27    28   ar
    23    28    29   ar
    24    29    30   ar
    25    30    31   ar
    26    31    32   ar
    27    32    33   ar
    28    33    34   ar
    29    34    35   ar
    30    24    25   ar
    31    25    26   ar
    32     9    10   am
    33    10    11    2
    34    10    12   am
    35    12    13    1
    36    13    14   ar
    37    14    15   ar
    38    15    16    1
    39    15    17   ar
    40    17    18   ar
    41    18    19   ar
    42    43    38   ar
    43     6     1    1
    44    26    21   ar
    45    19    13   ar
    46    12     4    1
    47    35    27   ar
    48    34    30   ar
    49    16    20    1
@<TRIPOS>MOLECULE
*****
 43 49 0 0 0
SMALL
GASTEIGER

@<TRIPOS>ATOM
      1 N         142.8160  137.6210  156.0814 N.3     1  UNL1       -0.2676
      2 C         143.4858  138.9444  155.8579 C.3     1  UNL1        0.0746
      3 C         143.7045  139.8785  157.0110 C.3     1  UNL1        0.0449
      4 C         143.2536  139.4891  158.3876 C.3     1  UNL1        0.1391
      5 C         142.5839  138.1657  158.6111 C.3     1  UNL1        0.0449
      6 C         142.3651  137.2317  157.4580 C.3     1  UNL1        0.0746
      7 C         142.8587  139.2382  159.8128 C.2     1  UNL1        0.2529
      8 O         142.1758  138.0091  160.3351 O.2     1  UNL1       -0.2724
      9 N         143.2668  140.4322  160.6240 N.am    1  UNL1       -0.1907
     10 C         143.9138  141.4211  159.7001 C.2     1  UNL1        0.3219
     11 O         144.4711  142.7579  160.0899 O.2     1  UNL1       -0.2512
     12 N         143.9057  140.8383  158.3180 N.am    1  UNL1       -0.2222
     13 C         144.4534  141.4900  157.0830 C.ar    1  UNL1        0.1453
     14 C         143.5801  142.3895  156.2594 C.ar    1  UNL1        0.0922
     15 C         144.1280  143.0413  155.0245 C.ar    1  UNL1        0.2259
     16 O         143.2547  143.9407  154.2009 O.3     1  UNL1       -0.4919
     17 N         145.5490  142.7935  154.6130 N.ar    1  UNL1       -0.1894
     18 C         146.4223  141.8941  155.4366 C.ar    1  UNL1        0.2027
     19 N         145.8745  141.2423  156.6716 N.ar    1  UNL1       -0.2084
     20 H         142.3670  144.0955  154.4578 H       1  UNL1        0.2938
     21 C         143.0635  140.6066  162.0998 C.ar    1  UNL1        0.0622
     22 C         144.1898  140.3273  163.0502 C.ar    1  UNL1        0.0154
     23 C         143.9865  140.5017  164.5261 C.ar    1  UNL1        0.0013
     24 C         142.6569  140.9555  165.0516 C.ar    1  UNL1        0.0001
     25 C         141.5306  141.2349  164.1011 C.ar    1  UNL1        0.0013
     26 C         141.7339  141.0604  162.6253 C.ar    1  UNL1        0.0154
     27 C         142.4536  141.1300  166.5274 C.ar    1  UNL1        0.0015
     28 C         143.2412  142.1641  167.2759 C.ar    1  UNL1        0.0006
     29 C         143.0379  142.3386  168.7519 C.ar    1  UNL1        0.0080
     30 C         142.0470  141.4789  169.4793 C.ar    1  UNL1        0.0485
     31 S         141.6347  141.4222  170.9204 S.2     1  UNL1       -0.0645
     32 C         140.5924  140.3530  171.0625 C.ar    1  UNL1        0.1345
     33 N         140.3605  139.7489  169.7093 N.ar    1  UNL1       -0.2363
     34 C         141.2595  140.4447  168.7307 C.ar    1  UNL1        0.0879
     35 C         141.4628  140.2702  167.2548 C.ar    1  UNL1        0.0196
     36 C         142.5972  136.6869  154.9283 C.3     1  UNL1        0.1183
     37 C         141.9490  134.5464  152.9287 C.3     1  UNL1        0.0323
     38 C         141.0065  135.6961  153.1288 C.ar    1  UNL1       -0.0069
     39 C         139.7400  135.7756  152.3291 C.ar    1  UNL1       -0.0015
     40 C         138.7976  136.9253  152.5292 C.ar    1  UNL1        0.0203
     41 C         139.1217  137.9955  153.5289 C.ar    1  UNL1        0.0985
     42 N         140.3882  137.9160  154.3287 N.ar    1  UNL1       -0.2471
     43 C         141.3307  136.7664  154.1286 C.ar    1  UNL1        0.0712
@<TRIPOS>BOND
     1    37    38    1
     2    38    39   ar
     3    39    40   ar
     4    40    41   ar
     5    41    42   ar
     6    42    43   ar
     7    43    36    1
     8    36     1    1
     9     1     2    1
    10     2     3    1
    11     3     4    1
    12     4     5    1
    13     5     6    1
    14     4     7    1
    15     7     8    2
    16     7     9   am
    17     9    21    1
    18    21    22   ar
    19    22    23   ar
    20    23    24   ar
    21    24    27    1
    22    27    28   ar
    23    28    29   ar
    24    29    30   ar
    25    30    31   ar
    26    31    32   ar
    27    32    33   ar
    28    33    34   ar
    29    34    35   ar
    30    24    25   ar
    31    25    26   ar
    32     9    10   am
    33    10    11    2
    34    10    12   am
    35    12    13    1
    36    13    14   ar
    37    14    15   ar
    38    15    16    1
    39    15    17   ar
    40    17    18   ar
    41    18    19   ar
    42    43    38   ar
    43     6     1    1
    44    26    21   ar
    45    19    13   ar
    46    12     4    1
    47    35    27   ar
    48    34    30   ar
    49    16    20    1
