@<TRIPOS>MOLECULE
*****
 29 32 0 0 0
SMALL
GASTEIGER

@<TRIPOS>ATOM
      1 O         139.1190  139.5115  169.0326 O.2     1  UNL1       -0.2718
      2 C         139.2570  139.8847  167.5863 C.2     1  UNL1        0.2592
      3 C         138.4512  139.1648  166.5458 C.3     1  UNL1        0.2205
      4 O         138.5892  139.5380  165.0996 O.3     1  UNL1       -0.3478
      5 C         139.5329  140.6310  164.6937 C.3     1  UNL1        0.1146
      6 C         140.4766  141.7240  164.2879 C.3     1  UNL1        0.0463
      7 C         140.6146  142.0972  162.8416 C.3     1  UNL1        0.0746
      8 N         139.8088  141.3773  161.8012 N.3     1  UNL1       -0.2722
      9 C         138.8651  140.2843  162.2070 C.3     1  UNL1        0.0746
     10 C         138.7272  139.9112  163.6533 C.3     1  UNL1        0.0463
     11 C         140.3387  141.3509  165.7342 C.3     1  UNL1        0.1254
     12 N         140.2007  140.9777  167.1805 N.am    1  UNL1       -0.2542
     13 C         141.0064  141.6976  168.2209 C.ar    1  UNL1        0.0540
     14 C         140.4209  142.8767  168.9398 C.ar    1  UNL1        0.0149
     15 C         141.2267  143.5966  169.9803 C.ar    1  UNL1        0.0013
     16 C         142.6179  143.1374  170.3018 C.ar    1  UNL1        0.0001
     17 C         143.2035  141.9582  169.5829 C.ar    1  UNL1        0.0013
     18 C         142.3978  141.2383  168.5425 C.ar    1  UNL1        0.0149
     19 C         137.5075  138.0718  166.9517 C.3     1  UNL1        0.1762
     20 O         136.8950  138.0798  168.3209 O.3     1  UNL1       -0.3791
     21 H         137.5888  137.9506  168.9863 H       1  UNL1        0.2106
     22 C         139.9468  141.7505  160.3549 C.3     1  UNL1        0.0768
     23 C         140.8645  140.9683  159.4628 C.3     1  UNL1        0.0437
     24 C         141.8889  140.0499  160.0606 C.ar    1  UNL1       -0.0208
     25 C         141.6504  138.5691  160.0763 C.ar    1  UNL1       -0.0042
     26 C         142.6747  137.6508  160.6742 C.ar    1  UNL1       -0.0003
     27 C         143.9375  138.2134  161.2563 C.ar    1  UNL1       -0.0000
     28 C         144.1760  139.6942  161.2406 C.ar    1  UNL1       -0.0003
     29 C         143.1517  140.6124  160.6428 C.ar    1  UNL1       -0.0042
@<TRIPOS>BOND
     1     1     2    2
     2     2     3    1
     3     3    19    1
     4    19    20    1
     5     3     4    1
     6     4     5    1
     7     5     6    1
     8     6     7    1
     9     7     8    1
    10     8    22    1
    11    22    23    1
    12    23    24    1
    13    24    25   ar
    14    25    26   ar
    15    26    27   ar
    16    27    28   ar
    17    28    29   ar
    18     8     9    1
    19     9    10    1
    20     5    11    1
    21    11    12    1
    22    12    13    1
    23    13    14   ar
    24    14    15   ar
    25    15    16   ar
    26    16    17   ar
    27    17    18   ar
    28    12     2   am
    29    18    13   ar
    30    10     5    1
    31    29    24   ar
    32    20    21    1
@<TRIPOS>MOLECULE
*****
 29 32 0 0 0
SMALL
GASTEIGER

@<TRIPOS>ATOM
      1 O         142.4101  142.3499  162.8972 O.2     1  UNL1       -0.2718
      2 C         142.1564  143.0483  161.5941 C.2     1  UNL1        0.2592
      3 C         143.1713  142.9721  160.4923 C.3     1  UNL1        0.2205
      4 O         142.9176  143.6705  159.1893 O.3     1  UNL1       -0.3478
      5 C         141.6489  144.4452  158.9881 C.3     1  UNL1        0.1146
      6 C         140.3803  145.2198  158.7869 C.3     1  UNL1        0.0463
      7 C         140.1266  145.9181  157.4839 C.3     1  UNL1        0.0746
      8 N         141.1416  145.8419  156.3821 N.3     1  UNL1       -0.2722
      9 C         142.4102  145.0673  156.5832 C.3     1  UNL1        0.0746
     10 C         142.6639  144.3689  157.8862 C.3     1  UNL1        0.0463
     11 C         140.6340  144.5214  160.0899 C.3     1  UNL1        0.1254
     12 N         140.8877  143.8230  161.3930 N.am    1  UNL1       -0.2542
     13 C         139.8728  143.8992  162.4948 C.ar    1  UNL1        0.0540
     14 C         140.0665  144.8631  163.6276 C.ar    1  UNL1        0.0149
     15 C         139.0516  144.9393  164.7295 C.ar    1  UNL1        0.0013
     16 C         137.8429  144.0516  164.6985 C.ar    1  UNL1        0.0001
     17 C         137.6491  143.0877  163.5657 C.ar    1  UNL1        0.0013
     18 C         138.6640  143.0114  162.4638 C.ar    1  UNL1        0.0149
     19 C         144.4400  142.1975  160.6935 C.3     1  UNL1        0.1762
     20 O         145.3529  142.5366  161.8344 O.3     1  UNL1       -0.3791
     21 H         145.7234  143.4228  161.6996 H       1  UNL1        0.2106
     22 C         140.8879  146.5403  155.0790 C.3     1  UNL1        0.0768
     23 C         139.5258  147.0907  154.7758 C.3     1  UNL1        0.0437
     24 C         139.2885  148.5712  154.8185 C.ar    1  UNL1       -0.0208
     25 C         138.5952  149.1859  155.9981 C.ar    1  UNL1       -0.0042
     26 C         138.3579  150.6664  156.0407 C.ar    1  UNL1       -0.0003
     27 C         138.8140  151.5321  154.9038 C.ar    1  UNL1       -0.0000
     28 C         139.5073  150.9174  153.7243 C.ar    1  UNL1       -0.0003
     29 C         139.7446  149.4370  153.6817 C.ar    1  UNL1       -0.0042
@<TRIPOS>BOND
     1     1     2    2
     2     2     3    1
     3     3    19    1
     4    19    20    1
     5     3     4    1
     6     4     5    1
     7     5     6    1
     8     6     7    1
     9     7     8    1
    10     8    22    1
    11    22    23    1
    12    23    24    1
    13    24    25   ar
    14    25    26   ar
    15    26    27   ar
    16    27    28   ar
    17    28    29   ar
    18     8     9    1
    19     9    10    1
    20     5    11    1
    21    11    12    1
    22    12    13    1
    23    13    14   ar
    24    14    15   ar
    25    15    16   ar
    26    16    17   ar
    27    17    18   ar
    28    12     2   am
    29    18    13   ar
    30    10     5    1
    31    29    24   ar
    32    20    21    1
@<TRIPOS>MOLECULE
*****
 29 32 0 0 0
SMALL
GASTEIGER

@<TRIPOS>ATOM
      1 O         139.6212  139.9156  167.9228 O.2     1  UNL1       -0.2718
      2 C         139.7011  140.7923  166.7083 C.2     1  UNL1        0.2592
      3 C         138.9473  140.4224  165.4654 C.3     1  UNL1        0.2205
      4 O         139.0272  141.2991  164.2509 O.3     1  UNL1       -0.3478
      5 C         139.8608  142.5458  164.2793 C.3     1  UNL1        0.1146
      6 C         140.6944  143.7925  164.3078 C.3     1  UNL1        0.0463
      7 C         140.7742  144.6692  163.0933 C.3     1  UNL1        0.0746
      8 N         140.0205  144.2992  161.8504 N.3     1  UNL1       -0.2722
      9 C         139.1869  143.0525  161.8219 C.3     1  UNL1        0.0746
     10 C         139.1070  142.1758  163.0364 C.3     1  UNL1        0.0463
     11 C         140.6146  142.9158  165.5223 C.3     1  UNL1        0.1254
     12 N         140.5347  142.0390  166.7368 N.am    1  UNL1       -0.2542
     13 C         141.2885  142.4090  167.9798 C.ar    1  UNL1        0.0540
     14 C         140.6147  143.2079  169.0557 C.ar    1  UNL1        0.0149
     15 C         141.3684  143.5779  170.2986 C.ar    1  UNL1        0.0013
     16 C         142.7960  143.1490  170.4657 C.ar    1  UNL1        0.0001
     17 C         143.4699  142.3500  169.3897 C.ar    1  UNL1        0.0013
     18 C         142.7161  141.9800  168.1468 C.ar    1  UNL1        0.0149
     19 C         138.1137  139.1756  165.4369 C.3     1  UNL1        0.1762
     20 O         137.4203  138.7085  166.6823 O.3     1  UNL1       -0.3791
     21 H         138.0817  138.4465  167.3417 H       1  UNL1        0.2106
     22 C         140.1003  145.1760  160.6359 C.3     1  UNL1        0.0768
     23 C         141.3486  145.1935  159.8043 C.3     1  UNL1        0.0437
     24 C         141.2599  145.4130  158.3230 C.ar    1  UNL1       -0.0208
     25 C         140.1287  146.2141  157.7499 C.ar    1  UNL1       -0.0042
     26 C         140.0402  146.4336  156.2687 C.ar    1  UNL1       -0.0003
     27 C         141.0828  145.8519  155.3607 C.ar    1  UNL1       -0.0000
     28 C         142.2140  145.0508  155.9338 C.ar    1  UNL1       -0.0003
     29 C         142.3026  144.8313  157.4149 C.ar    1  UNL1       -0.0042
@<TRIPOS>BOND
     1     1     2    2
     2     2     3    1
     3     3    19    1
     4    19    20    1
     5     3     4    1
     6     4     5    1
     7     5     6    1
     8     6     7    1
     9     7     8    1
    10     8    22    1
    11    22    23    1
    12    23    24    1
    13    24    25   ar
    14    25    26   ar
    15    26    27   ar
    16    27    28   ar
    17    28    29   ar
    18     8     9    1
    19     9    10    1
    20     5    11    1
    21    11    12    1
    22    12    13    1
    23    13    14   ar
    24    14    15   ar
    25    15    16   ar
    26    16    17   ar
    27    17    18   ar
    28    12     2   am
    29    18    13   ar
    30    10     5    1
    31    29    24   ar
    32    20    21    1
@<TRIPOS>MOLECULE
*****
 29 32 0 0 0
SMALL
GASTEIGER

@<TRIPOS>ATOM
      1 O         138.8940  139.7283  169.3189 O.2     1  UNL1       -0.2718
      2 C         139.1938  139.7967  167.8507 C.2     1  UNL1        0.2592
      3 C         138.3667  139.0083  166.8789 C.3     1  UNL1        0.2205
      4 O         138.6665  139.0766  165.4107 O.3     1  UNL1       -0.3478
      5 C         139.7933  139.9333  164.9144 C.3     1  UNL1        0.1146
      6 C         140.9202  140.7900  164.4181 C.3     1  UNL1        0.0463
      7 C         141.2199  140.8583  162.9499 C.3     1  UNL1        0.0746
      8 N         140.3928  140.0700  161.9781 N.3     1  UNL1       -0.2722
      9 C         139.2660  139.2133  162.4744 C.3     1  UNL1        0.0746
     10 C         138.9662  139.1450  163.9425 C.3     1  UNL1        0.0463
     11 C         140.6204  140.7217  165.8862 C.3     1  UNL1        0.1254
     12 N         140.3206  140.6533  167.3544 N.am    1  UNL1       -0.2542
     13 C         141.1477  141.4417  168.3262 C.ar    1  UNL1        0.0540
     14 C         142.5523  141.0150  168.6346 C.ar    1  UNL1        0.0149
     15 C         143.3794  141.8033  169.6064 C.ar    1  UNL1        0.0013
     16 C         142.8019  143.0183  170.2699 C.ar    1  UNL1        0.0001
     17 C         141.3973  143.4451  169.9615 C.ar    1  UNL1        0.0013
     18 C         140.5702  142.6567  168.9897 C.ar    1  UNL1        0.0149
     19 C         137.2398  138.1516  167.3752 C.3     1  UNL1        0.1762
     20 O         137.2682  136.6693  167.1476 O.3     1  UNL1       -0.3791
     21 H         137.2043  136.4868  166.1971 H       1  UNL1        0.2106
     22 C         140.6926  140.1383  160.5099 C.3     1  UNL1        0.0768
     23 C         141.7734  139.2788  159.9243 C.3     1  UNL1        0.0437
     24 C         141.4946  138.4494  158.7059 C.ar    1  UNL1       -0.0208
     25 C         140.1049  138.3837  158.1453 C.ar    1  UNL1       -0.0042
     26 C         139.8262  137.5544  156.9269 C.ar    1  UNL1       -0.0003
     27 C         140.9372  136.7907  156.2692 C.ar    1  UNL1       -0.0000
     28 C         142.3268  136.8564  156.8299 C.ar    1  UNL1       -0.0003
     29 C         142.6056  137.6857  158.0482 C.ar    1  UNL1       -0.0042
@<TRIPOS>BOND
     1     1     2    2
     2     2     3    1
     3     3    19    1
     4    19    20    1
     5     3     4    1
     6     4     5    1
     7     5     6    1
     8     6     7    1
     9     7     8    1
    10     8    22    1
    11    22    23    1
    12    23    24    1
    13    24    25   ar
    14    25    26   ar
    15    26    27   ar
    16    27    28   ar
    17    28    29   ar
    18     8     9    1
    19     9    10    1
    20     5    11    1
    21    11    12    1
    22    12    13    1
    23    13    14   ar
    24    14    15   ar
    25    15    16   ar
    26    16    17   ar
    27    17    18   ar
    28    12     2   am
    29    18    13   ar
    30    10     5    1
    31    29    24   ar
    32    20    21    1
@<TRIPOS>MOLECULE
*****
 29 32 0 0 0
SMALL
GASTEIGER

@<TRIPOS>ATOM
      1 O         143.1450  139.8641  168.5060 O.2     1  UNL1       -0.2718
      2 C         142.2356  139.6617  167.3303 C.2     1  UNL1        0.2592
      3 C         142.6519  138.7595  166.2067 C.3     1  UNL1        0.2205
      4 O         141.7426  138.5571  165.0311 O.3     1  UNL1       -0.3478
      5 C         140.4168  139.2570  164.9791 C.3     1  UNL1        0.1146
      6 C         139.0911  139.9568  164.9272 C.3     1  UNL1        0.0463
      7 C         138.1818  139.7544  163.7516 C.3     1  UNL1        0.0746
      8 N         138.5981  138.8522  162.6279 N.3     1  UNL1       -0.2722
      9 C         139.9238  138.1524  162.6798 C.3     1  UNL1        0.0746
     10 C         140.8332  138.3547  163.8554 C.3     1  UNL1        0.0463
     11 C         140.0005  140.1592  166.1028 C.3     1  UNL1        0.1254
     12 N         140.9099  140.3616  167.2784 N.am    1  UNL1       -0.2542
     13 C         140.4936  141.2638  168.4021 C.ar    1  UNL1        0.0540
     14 C         139.6276  140.7352  169.5068 C.ar    1  UNL1        0.0149
     15 C         139.2112  141.6374  170.6305 C.ar    1  UNL1        0.0013
     16 C         139.6609  143.0682  170.6494 C.ar    1  UNL1        0.0001
     17 C         140.5270  143.5969  169.5447 C.ar    1  UNL1        0.0013
     18 C         140.9433  142.6947  168.4210 C.ar    1  UNL1        0.0149
     19 C         143.9777  138.0596  166.2586 C.3     1  UNL1        0.1762
     20 O         144.3827  137.3111  167.4938 O.3     1  UNL1       -0.3791
     21 H         144.5000  137.9357  168.2265 H       1  UNL1        0.2106
     22 C         137.6887  138.6498  161.4522 C.3     1  UNL1        0.0768
     23 C         137.3746  139.7987  160.5405 C.3     1  UNL1        0.0437
     24 C         138.4222  140.8314  160.2469 C.ar    1  UNL1       -0.0208
     25 C         138.3635  142.1713  160.9186 C.ar    1  UNL1       -0.0042
     26 C         139.4111  143.2039  160.6250 C.ar    1  UNL1       -0.0003
     27 C         140.5174  142.8966  159.6598 C.ar    1  UNL1       -0.0000
     28 C         140.5761  141.5567  158.9881 C.ar    1  UNL1       -0.0003
     29 C         139.5285  140.5241  159.2817 C.ar    1  UNL1       -0.0042
@<TRIPOS>BOND
     1     1     2    2
     2     2     3    1
     3     3    19    1
     4    19    20    1
     5     3     4    1
     6     4     5    1
     7     5     6    1
     8     6     7    1
     9     7     8    1
    10     8    22    1
    11    22    23    1
    12    23    24    1
    13    24    25   ar
    14    25    26   ar
    15    26    27   ar
    16    27    28   ar
    17    28    29   ar
    18     8     9    1
    19     9    10    1
    20     5    11    1
    21    11    12    1
    22    12    13    1
    23    13    14   ar
    24    14    15   ar
    25    15    16   ar
    26    16    17   ar
    27    17    18   ar
    28    12     2   am
    29    18    13   ar
    30    10     5    1
    31    29    24   ar
    32    20    21    1
@<TRIPOS>MOLECULE
*****
 29 32 0 0 0
SMALL
GASTEIGER

@<TRIPOS>ATOM
      1 O         139.3867  139.4825  168.7497 O.2     1  UNL1       -0.2718
      2 C         139.3504  140.0805  167.3745 C.2     1  UNL1        0.2592
      3 C         138.5288  139.4359  166.2978 C.3     1  UNL1        0.2205
      4 O         138.4925  140.0338  164.9226 O.3     1  UNL1       -0.3478
      5 C         139.2779  141.2765  164.6242 C.3     1  UNL1        0.1146
      6 C         140.0632  142.5191  164.3257 C.3     1  UNL1        0.0463
      7 C         140.0270  143.1171  162.9506 C.3     1  UNL1        0.0746
      8 N         139.2053  142.4724  161.8739 N.3     1  UNL1       -0.2722
      9 C         138.4200  141.2298  162.1723 C.3     1  UNL1        0.0746
     10 C         138.4562  140.6319  163.5474 C.3     1  UNL1        0.0463
     11 C         140.0995  141.9212  165.7009 C.3     1  UNL1        0.1254
     12 N         140.1358  141.3231  167.0761 N.am    1  UNL1       -0.2542
     13 C         140.9574  141.9678  168.1528 C.ar    1  UNL1        0.0540
     14 C         142.3867  141.5586  168.3520 C.ar    1  UNL1        0.0149
     15 C         143.2083  142.2033  169.4287 C.ar    1  UNL1        0.0013
     16 C         142.6007  143.2571  170.3063 C.ar    1  UNL1        0.0001
     17 C         141.1713  143.6663  170.1072 C.ar    1  UNL1        0.0013
     18 C         140.3497  143.0217  169.0304 C.ar    1  UNL1        0.0149
     19 C         137.7434  138.1932  166.5963 C.3     1  UNL1        0.1762
     20 O         136.9140  138.1117  167.8434 O.3     1  UNL1       -0.3791
     21 H         137.4952  138.1268  168.6199 H       1  UNL1        0.2106
     22 C         139.1691  143.0705  160.4986 C.3     1  UNL1        0.0768
     23 C         139.9761  144.2972  160.1928 C.3     1  UNL1        0.0437
     24 C         140.3505  144.6146  158.7753 C.ar    1  UNL1       -0.0208
     25 C         139.5991  143.9821  157.6416 C.ar    1  UNL1       -0.0042
     26 C         139.9735  144.2995  156.2242 C.ar    1  UNL1       -0.0003
     27 C         141.0992  145.2494  155.9405 C.ar    1  UNL1       -0.0000
     28 C         141.8505  145.8819  157.0742 C.ar    1  UNL1       -0.0003
     29 C         141.4762  145.5645  158.4916 C.ar    1  UNL1       -0.0042
@<TRIPOS>BOND
     1     1     2    2
     2     2     3    1
     3     3    19    1
     4    19    20    1
     5     3     4    1
     6     4     5    1
     7     5     6    1
     8     6     7    1
     9     7     8    1
    10     8    22    1
    11    22    23    1
    12    23    24    1
    13    24    25   ar
    14    25    26   ar
    15    26    27   ar
    16    27    28   ar
    17    28    29   ar
    18     8     9    1
    19     9    10    1
    20     5    11    1
    21    11    12    1
    22    12    13    1
    23    13    14   ar
    24    14    15   ar
    25    15    16   ar
    26    16    17   ar
    27    17    18   ar
    28    12     2   am
    29    18    13   ar
    30    10     5    1
    31    29    24   ar
    32    20    21    1
@<TRIPOS>MOLECULE
*****
 29 32 0 0 0
SMALL
GASTEIGER

@<TRIPOS>ATOM
      1 O         138.7706  139.8085  169.2562 O.2     1  UNL1       -0.2718
      2 C         139.1928  139.7354  167.8187 C.2     1  UNL1        0.2592
      3 C         138.4057  138.9069  166.8470 C.3     1  UNL1        0.2205
      4 O         138.8279  138.8339  165.4095 O.3     1  UNL1       -0.3478
      5 C         140.0372  139.5893  164.9436 C.3     1  UNL1        0.1146
      6 C         141.2464  140.3446  164.4778 C.3     1  UNL1        0.0463
      7 C         141.6686  140.2716  163.0403 C.3     1  UNL1        0.0746
      8 N         140.8815  139.4431  162.0687 N.3     1  UNL1       -0.2722
      9 C         139.6722  138.6877  162.5345 C.3     1  UNL1        0.0746
     10 C         139.2501  138.7608  163.9720 C.3     1  UNL1        0.0463
     11 C         140.8243  140.4177  165.9153 C.3     1  UNL1        0.1254
     12 N         140.4021  140.4908  167.3528 N.am    1  UNL1       -0.2542
     13 C         141.1892  141.3192  168.3245 C.ar    1  UNL1        0.0540
     14 C         142.5582  140.8777  168.7498 C.ar    1  UNL1        0.0149
     15 C         143.3453  141.7061  169.7215 C.ar    1  UNL1        0.0013
     16 C         142.7635  142.9762  170.2678 C.ar    1  UNL1        0.0001
     17 C         141.3944  143.4178  169.8424 C.ar    1  UNL1        0.0013
     18 C         140.6073  142.5893  168.8708 C.ar    1  UNL1        0.0149
     19 C         137.1964  138.1515  167.3129 C.3     1  UNL1        0.1762
     20 O         137.1873  136.6521  167.2729 O.3     1  UNL1       -0.3791
     21 H         137.2202  136.3531  166.3507 H       1  UNL1        0.2106
     22 C         141.3037  139.3700  160.6311 C.3     1  UNL1        0.0768
     23 C         142.7521  139.1953  160.2828 C.3     1  UNL1        0.0437
     24 C         143.4971  140.3014  159.5958 C.ar    1  UNL1       -0.0208
     25 C         143.7843  140.2124  158.1263 C.ar    1  UNL1       -0.0042
     26 C         144.5291  141.3184  157.4394 C.ar    1  UNL1       -0.0003
     27 C         144.9868  142.5134  158.2221 C.ar    1  UNL1       -0.0000
     28 C         144.6996  142.6024  159.6916 C.ar    1  UNL1       -0.0003
     29 C         143.9547  141.4964  160.3785 C.ar    1  UNL1       -0.0042
@<TRIPOS>BOND
     1     1     2    2
     2     2     3    1
     3     3    19    1
     4    19    20    1
     5     3     4    1
     6     4     5    1
     7     5     6    1
     8     6     7    1
     9     7     8    1
    10     8    22    1
    11    22    23    1
    12    23    24    1
    13    24    25   ar
    14    25    26   ar
    15    26    27   ar
    16    27    28   ar
    17    28    29   ar
    18     8     9    1
    19     9    10    1
    20     5    11    1
    21    11    12    1
    22    12    13    1
    23    13    14   ar
    24    14    15   ar
    25    15    16   ar
    26    16    17   ar
    27    17    18   ar
    28    12     2   am
    29    18    13   ar
    30    10     5    1
    31    29    24   ar
    32    20    21    1
@<TRIPOS>MOLECULE
*****
 29 32 0 0 0
SMALL
GASTEIGER

@<TRIPOS>ATOM
      1 O         144.2904  142.5568  161.3919 O.2     1  UNL1       -0.2718
      2 C         143.4007  142.0655  162.4952 C.2     1  UNL1        0.2592
      3 C         143.9736  141.2411  163.6097 C.3     1  UNL1        0.2205
      4 O         143.0840  140.7499  164.7130 O.3     1  UNL1       -0.3478
      5 C         141.6215  141.0830  164.7018 C.3     1  UNL1        0.1146
      6 C         140.1590  141.4162  164.6906 C.3     1  UNL1        0.0463
      7 C         139.2695  140.9250  165.7939 C.3     1  UNL1        0.0746
      8 N         139.8423  140.1006  166.9084 N.3     1  UNL1       -0.2722
      9 C         141.3048  139.7674  166.9196 C.3     1  UNL1        0.0746
     10 C         142.1944  140.2586  165.8163 C.3     1  UNL1        0.0463
     11 C         141.0486  141.9075  163.5873 C.3     1  UNL1        0.1254
     12 N         141.9383  142.3987  162.4840 N.am    1  UNL1       -0.2542
     13 C         141.3654  143.2231  161.3695 C.ar    1  UNL1        0.0540
     14 C         141.2030  144.7046  161.5394 C.ar    1  UNL1        0.0149
     15 C         140.6301  145.5290  160.4249 C.ar    1  UNL1        0.0013
     16 C         140.2197  144.8720  159.1404 C.ar    1  UNL1        0.0001
     17 C         140.3821  143.3905  158.9705 C.ar    1  UNL1        0.0013
     18 C         140.9550  142.5660  160.0850 C.ar    1  UNL1        0.0149
     19 C         145.4362  140.9079  163.6209 C.3     1  UNL1        0.1762
     20 O         146.4306  141.8779  163.0550 O.3     1  UNL1       -0.3791
     21 H         146.2909  141.9633  162.0989 H       1  UNL1        0.2106
     22 C         138.9527  139.6093  168.0117 C.3     1  UNL1        0.0768
     23 C         138.9595  140.2987  169.3438 C.3     1  UNL1        0.0437
     24 C         140.1355  141.1374  169.7483 C.ar    1  UNL1       -0.0208
     25 C         141.2963  140.5079  170.4598 C.ar    1  UNL1       -0.0042
     26 C         142.4723  141.3466  170.8643 C.ar    1  UNL1       -0.0003
     27 C         142.4875  142.8147  170.5572 C.ar    1  UNL1       -0.0000
     28 C         141.3268  143.4442  169.8458 C.ar    1  UNL1       -0.0003
     29 C         140.1508  142.6056  169.4413 C.ar    1  UNL1       -0.0042
@<TRIPOS>BOND
     1     1     2    2
     2     2     3    1
     3     3    19    1
     4    19    20    1
     5     3     4    1
     6     4     5    1
     7     5     6    1
     8     6     7    1
     9     7     8    1
    10     8    22    1
    11    22    23    1
    12    23    24    1
    13    24    25   ar
    14    25    26   ar
    15    26    27   ar
    16    27    28   ar
    17    28    29   ar
    18     8     9    1
    19     9    10    1
    20     5    11    1
    21    11    12    1
    22    12    13    1
    23    13    14   ar
    24    14    15   ar
    25    15    16   ar
    26    16    17   ar
    27    17    18   ar
    28    12     2   am
    29    18    13   ar
    30    10     5    1
    31    29    24   ar
    32    20    21    1
@<TRIPOS>MOLECULE
*****
 29 32 0 0 0
SMALL
GASTEIGER

@<TRIPOS>ATOM
      1 O         140.4820  139.5222  166.9908 O.2     1  UNL1       -0.2718
      2 C         140.4638  140.5393  165.8884 C.2     1  UNL1        0.2592
      3 C         139.9421  140.1663  164.5324 C.3     1  UNL1        0.2205
      4 O         139.9238  141.1833  163.4300 O.3     1  UNL1       -0.3478
      5 C         140.4274  142.5734  163.6835 C.3     1  UNL1        0.1146
      6 C         140.9309  143.9633  163.9371 C.3     1  UNL1        0.0463
      7 C         140.9127  144.9803  162.8347 C.3     1  UNL1        0.0746
      8 N         140.3909  144.6073  161.4787 N.3     1  UNL1       -0.2722
      9 C         139.8874  143.2173  161.2252 C.3     1  UNL1        0.0746
     10 C         139.9056  142.2004  162.3276 C.3     1  UNL1        0.0463
     11 C         140.9492  142.9463  165.0395 C.3     1  UNL1        0.1254
     12 N         140.9674  141.9293  166.1419 N.am    1  UNL1       -0.2542
     13 C         141.4892  142.3023  167.4979 C.ar    1  UNL1        0.0540
     14 C         142.9270  142.0508  167.8435 C.ar    1  UNL1        0.0149
     15 C         143.4487  142.4238  169.1994 C.ar    1  UNL1        0.0013
     16 C         142.5327  143.0482  170.2098 C.ar    1  UNL1        0.0001
     17 C         141.0948  143.2997  169.8643 C.ar    1  UNL1        0.0013
     18 C         140.5730  142.9267  168.5083 C.ar    1  UNL1        0.0149
     19 C         139.4385  138.7762  164.2789 C.3     1  UNL1        0.1762
     20 O         138.5746  138.0940  165.2979 O.3     1  UNL1       -0.3791
     21 H         139.0897  137.9355  166.1044 H       1  UNL1        0.2106
     22 C         140.3727  145.6244  160.3763 C.3     1  UNL1        0.0768
     23 C         141.0109  145.3105  159.0557 C.3     1  UNL1        0.0437
     24 C         140.1752  145.2645  157.8108 C.ar    1  UNL1       -0.0208
     25 C         139.5758  143.9664  157.3575 C.ar    1  UNL1       -0.0042
     26 C         138.7401  143.9204  156.1127 C.ar    1  UNL1       -0.0003
     27 C         138.5038  145.1725  155.3213 C.ar    1  UNL1       -0.0000
     28 C         139.1032  146.4706  155.7747 C.ar    1  UNL1       -0.0003
     29 C         139.9389  146.5166  157.0194 C.ar    1  UNL1       -0.0042
@<TRIPOS>BOND
     1     1     2    2
     2     2     3    1
     3     3    19    1
     4    19    20    1
     5     3     4    1
     6     4     5    1
     7     5     6    1
     8     6     7    1
     9     7     8    1
    10     8    22    1
    11    22    23    1
    12    23    24    1
    13    24    25   ar
    14    25    26   ar
    15    26    27   ar
    16    27    28   ar
    17    28    29   ar
    18     8     9    1
    19     9    10    1
    20     5    11    1
    21    11    12    1
    22    12    13    1
    23    13    14   ar
    24    14    15   ar
    25    15    16   ar
    26    16    17   ar
    27    17    18   ar
    28    12     2   am
    29    18    13   ar
    30    10     5    1
    31    29    24   ar
    32    20    21    1
