@<TRIPOS>MOLECULE
*****
 25 28 0 0 0
SMALL
GASTEIGER

@<TRIPOS>ATOM
      1 C         138.8524  137.6727  163.5197 C.3     1  UNL1        0.0992
      2 C         139.3286  138.0868  160.9994 C.3     1  UNL1        0.0902
      3 N         139.8054  137.6770  162.3613 N.3     1  UNL1       -0.2639
      4 C         141.2352  137.2717  162.5648 C.3     1  UNL1        0.0994
      5 C         142.3253  138.2985  162.4794 C.ar    1  UNL1       -0.0062
      6 C         143.0580  138.5086  161.1876 C.ar    1  UNL1        0.0002
      7 C         144.1482  139.5355  161.1021 C.ar    1  UNL1        0.0363
      8 C         144.5055  140.3521  162.3085 C.ar    1  UNL1        0.1346
      9 C         143.7727  140.1419  163.6004 C.ar    1  UNL1        0.0153
     10 C         142.6826  139.1151  163.6858 C.ar    1  UNL1       -0.0041
     11 C         144.3411  141.0892  164.6151 C.3     1  UNL1        0.0767
     12 C         145.4251  141.8848  163.9503 C.3     1  UNL1        0.2102
     13 O         145.5267  141.4293  162.5248 O.3     1  UNL1       -0.4754
     14 C         139.3121  138.1342  164.8708 C.2     1  UNL1       -0.0088
     15 C         139.3612  139.5998  165.1861 C.2     1  UNL1       -0.0032
     16 C         139.8210  140.0614  166.5373 C.ar    1  UNL1       -0.0003
     17 C         138.9831  139.7833  167.7500 C.ar    1  UNL1       -0.0000
     18 C         139.4428  140.2448  169.1011 C.ar    1  UNL1       -0.0000
     19 C         140.7404  140.9845  169.2396 C.ar    1  UNL1       -0.0000
     20 C         141.2001  141.4460  170.5907 C.ar    1  UNL1        0.0000
     21 C         142.4977  142.1856  170.7292 C.ar    1  UNL1        0.0000
     22 C         143.3356  142.4637  169.5165 C.ar    1  UNL1        0.0000
     23 C         142.8759  142.0022  168.1654 C.ar    1  UNL1       -0.0000
     24 C         141.5783  141.2625  168.0269 C.ar    1  UNL1       -0.0000
     25 C         141.1185  140.8010  166.6757 C.ar    1  UNL1       -0.0000
@<TRIPOS>BOND
     1     2     3    1
     2     3     1    1
     3     1    14    1
     4    14    15    2
     5    15    16    1
     6    16    17   ar
     7    17    18   ar
     8    18    19   ar
     9    19    20   ar
    10    20    21   ar
    11    21    22   ar
    12    22    23   ar
    13    23    24   ar
    14    24    25   ar
    15     3     4    1
    16     4     5    1
    17     5     6   ar
    18     6     7   ar
    19     7     8   ar
    20     8     9   ar
    21     9    10   ar
    22     9    11    1
    23    11    12    1
    24    12    13    1
    25    25    16   ar
    26    10     5   ar
    27    24    19   ar
    28    13     8    1
@<TRIPOS>MOLECULE
*****
 25 28 0 0 0
SMALL
GASTEIGER

@<TRIPOS>ATOM
      1 C         145.3070  142.1506  163.1996 C.3     1  UNL1        0.0992
      2 C         144.7029  142.6594  160.7245 C.3     1  UNL1        0.0902
      3 N         144.6741  143.0438  162.1741 N.3     1  UNL1       -0.2639
      4 C         144.0124  144.3214  162.5982 C.3     1  UNL1        0.0994
      5 C         142.5173  144.3968  162.6910 C.ar    1  UNL1       -0.0062
      6 C         141.6989  144.6127  161.4525 C.ar    1  UNL1        0.0002
      7 C         140.2037  144.6881  161.5453 C.ar    1  UNL1        0.0363
      8 C         139.5268  144.5477  162.8765 C.ar    1  UNL1        0.1346
      9 C         140.3452  144.3318  164.1150 C.ar    1  UNL1        0.0153
     10 C         141.8404  144.2564  164.0222 C.ar    1  UNL1       -0.0041
     11 C         139.4054  144.2294  165.2795 C.3     1  UNL1        0.0767
     12 C         138.0062  144.3820  164.7608 C.3     1  UNL1        0.2102
     13 O         138.0812  144.5786  163.2757 O.3     1  UNL1       -0.4754
     14 C         144.6647  141.9800  164.5444 C.2     1  UNL1       -0.0088
     15 C         143.5705  140.9710  164.7303 C.2     1  UNL1       -0.0032
     16 C         142.9282  140.8004  166.0751 C.ar    1  UNL1       -0.0003
     17 C         143.0558  139.4974  166.8073 C.ar    1  UNL1       -0.0000
     18 C         142.4135  139.3268  168.1520 C.ar    1  UNL1       -0.0000
     19 C         141.6437  140.4591  168.7647 C.ar    1  UNL1       -0.0000
     20 C         141.0014  140.2885  170.1094 C.ar    1  UNL1        0.0000
     21 C         140.2317  141.4208  170.7220 C.ar    1  UNL1        0.0000
     22 C         140.1042  142.7237  169.9898 C.ar    1  UNL1        0.0000
     23 C         140.7464  142.8944  168.6451 C.ar    1  UNL1       -0.0000
     24 C         141.5162  141.7621  168.0325 C.ar    1  UNL1       -0.0000
     25 C         142.1585  141.9327  166.6877 C.ar    1  UNL1       -0.0000
@<TRIPOS>BOND
     1     2     3    1
     2     3     1    1
     3     1    14    1
     4    14    15    2
     5    15    16    1
     6    16    17   ar
     7    17    18   ar
     8    18    19   ar
     9    19    20   ar
    10    20    21   ar
    11    21    22   ar
    12    22    23   ar
    13    23    24   ar
    14    24    25   ar
    15     3     4    1
    16     4     5    1
    17     5     6   ar
    18     6     7   ar
    19     7     8   ar
    20     8     9   ar
    21     9    10   ar
    22     9    11    1
    23    11    12    1
    24    12    13    1
    25    25    16   ar
    26    10     5   ar
    27    24    19   ar
    28    13     8    1
@<TRIPOS>MOLECULE
*****
 25 28 0 0 0
SMALL
GASTEIGER

@<TRIPOS>ATOM
      1 C         139.3835  145.0076  163.2484 C.3     1  UNL1        0.0992
      2 C         139.6889  144.2541  160.7808 C.3     1  UNL1        0.0902
      3 N         138.9655  144.1501  162.0907 N.3     1  UNL1       -0.2639
      4 C         137.8243  143.1887  162.2431 C.3     1  UNL1        0.0994
      5 C         138.0871  141.7733  162.6641 C.ar    1  UNL1       -0.0062
      6 C         138.4622  140.7436  161.6399 C.ar    1  UNL1        0.0002
      7 C         138.7250  139.3280  162.0609 C.ar    1  UNL1        0.0363
      8 C         138.6128  138.9422  163.5061 C.ar    1  UNL1        0.1346
      9 C         138.2377  139.9720  164.5303 C.ar    1  UNL1        0.0153
     10 C         137.9748  141.3875  164.1093 C.ar    1  UNL1       -0.0041
     11 C         138.2045  139.3011  165.8715 C.3     1  UNL1        0.0767
     12 C         138.5590  137.8567  165.6762 C.3     1  UNL1        0.2102
     13 O         138.8114  137.6350  164.2143 O.3     1  UNL1       -0.4754
     14 C         139.8220  144.3706  164.5337 C.2     1  UNL1       -0.0088
     15 C         140.9782  143.4151  164.5409 C.2     1  UNL1       -0.0032
     16 C         141.4167  142.7781  165.8262 C.ar    1  UNL1       -0.0003
     17 C         142.8769  142.6826  166.1559 C.ar    1  UNL1       -0.0000
     18 C         143.3155  142.0456  167.4411 C.ar    1  UNL1       -0.0000
     19 C         142.2939  141.5041  168.3967 C.ar    1  UNL1       -0.0000
     20 C         142.7325  140.8671  169.6820 C.ar    1  UNL1        0.0000
     21 C         141.7109  140.3256  170.6375 C.ar    1  UNL1        0.0000
     22 C         140.2507  140.4211  170.3078 C.ar    1  UNL1        0.0000
     23 C         139.8121  141.0581  169.0225 C.ar    1  UNL1       -0.0000
     24 C         140.8337  141.5995  168.0670 C.ar    1  UNL1       -0.0000
     25 C         140.3951  142.2366  166.7817 C.ar    1  UNL1       -0.0000
@<TRIPOS>BOND
     1     2     3    1
     2     3     1    1
     3     1    14    1
     4    14    15    2
     5    15    16    1
     6    16    17   ar
     7    17    18   ar
     8    18    19   ar
     9    19    20   ar
    10    20    21   ar
    11    21    22   ar
    12    22    23   ar
    13    23    24   ar
    14    24    25   ar
    15     3     4    1
    16     4     5    1
    17     5     6   ar
    18     6     7   ar
    19     7     8   ar
    20     8     9   ar
    21     9    10   ar
    22     9    11    1
    23    11    12    1
    24    12    13    1
    25    25    16   ar
    26    10     5   ar
    27    24    19   ar
    28    13     8    1
@<TRIPOS>MOLECULE
*****
 25 28 0 0 0
SMALL
GASTEIGER

@<TRIPOS>ATOM
      1 C         138.1189  144.1434  163.3720 C.3     1  UNL1        0.0992
      2 C         138.3668  143.0022  161.0512 C.3     1  UNL1        0.0902
      3 N         138.8716  143.9623  162.0872 N.3     1  UNL1       -0.2639
      4 C         140.1291  144.7413  161.8384 C.3     1  UNL1        0.0994
      5 C         141.4227  144.2928  162.4509 C.ar    1  UNL1       -0.0062
      6 C         142.1052  145.1509  163.4745 C.ar    1  UNL1        0.0002
      7 C         143.3989  144.7024  164.0871 C.ar    1  UNL1        0.0363
      8 C         144.0101  143.3957  163.6760 C.ar    1  UNL1        0.1346
      9 C         143.3276  142.5375  162.6523 C.ar    1  UNL1        0.0153
     10 C         142.0340  142.9861  162.0398 C.ar    1  UNL1       -0.0041
     11 C         144.1627  141.3086  162.4466 C.3     1  UNL1        0.0767
     12 C         145.3613  141.4072  163.3431 C.3     1  UNL1        0.2102
     13 O         145.2670  142.6971  164.1028 O.3     1  UNL1       -0.4754
     14 C         138.6573  143.5610  164.6451 C.2     1  UNL1       -0.0088
     15 C         139.4543  142.2908  164.6105 C.2     1  UNL1       -0.0032
     16 C         139.9928  141.7083  165.8837 C.ar    1  UNL1       -0.0003
     17 C         139.3257  140.5166  166.5042 C.ar    1  UNL1       -0.0000
     18 C         139.8641  139.9341  167.7772 C.ar    1  UNL1       -0.0000
     19 C         141.0695  140.5432  168.4299 C.ar    1  UNL1       -0.0000
     20 C         141.6079  139.9607  169.7030 C.ar    1  UNL1        0.0000
     21 C         142.8133  140.5698  170.3556 C.ar    1  UNL1        0.0000
     22 C         143.4803  141.7615  169.7351 C.ar    1  UNL1        0.0000
     23 C         142.9419  142.3440  168.4621 C.ar    1  UNL1       -0.0000
     24 C         141.7366  141.7349  167.8094 C.ar    1  UNL1       -0.0000
     25 C         141.1981  142.3174  166.5363 C.ar    1  UNL1       -0.0000
@<TRIPOS>BOND
     1     2     3    1
     2     3     1    1
     3     1    14    1
     4    14    15    2
     5    15    16    1
     6    16    17   ar
     7    17    18   ar
     8    18    19   ar
     9    19    20   ar
    10    20    21   ar
    11    21    22   ar
    12    22    23   ar
    13    23    24   ar
    14    24    25   ar
    15     3     4    1
    16     4     5    1
    17     5     6   ar
    18     6     7   ar
    19     7     8   ar
    20     8     9   ar
    21     9    10   ar
    22     9    11    1
    23    11    12    1
    24    12    13    1
    25    25    16   ar
    26    10     5   ar
    27    24    19   ar
    28    13     8    1
@<TRIPOS>MOLECULE
*****
 25 28 0 0 0
SMALL
GASTEIGER

@<TRIPOS>ATOM
      1 C         143.9244  138.5486  162.0868 C.3     1  UNL1        0.0992
      2 C         143.1873  139.1127  159.6601 C.3     1  UNL1        0.0902
      3 N         142.8845  138.5237  161.0060 N.3     1  UNL1       -0.2639
      4 C         141.5418  137.9097  161.2710 C.3     1  UNL1        0.0994
      5 C         140.6734  138.4501  162.3682 C.ar    1  UNL1       -0.0062
      6 C         140.3236  139.9084  162.3984 C.ar    1  UNL1        0.0002
      7 C         139.4552  140.4489  163.4956 C.ar    1  UNL1        0.0363
      8 C         138.9366  139.5310  164.5626 C.ar    1  UNL1        0.1346
      9 C         139.2865  138.0726  164.5324 C.ar    1  UNL1        0.0153
     10 C         140.1549  137.5322  163.4352 C.ar    1  UNL1       -0.0041
     11 C         138.6330  137.4147  165.7114 C.3     1  UNL1        0.0767
     12 C         137.8793  138.4664  166.4703 C.3     1  UNL1        0.2102
     13 O         138.0670  139.7743  165.7603 O.3     1  UNL1       -0.4754
     14 C         143.7573  139.4587  163.2674 C.2     1  UNL1       -0.0088
     15 C         143.2795  138.9071  164.5779 C.2     1  UNL1       -0.0032
     16 C         143.1125  139.8172  165.7585 C.ar    1  UNL1       -0.0003
     17 C         143.2806  141.2985  165.5933 C.ar    1  UNL1       -0.0000
     18 C         143.1136  142.2086  166.7739 C.ar    1  UNL1       -0.0000
     19 C         142.7785  141.6373  168.1198 C.ar    1  UNL1       -0.0000
     20 C         142.6115  142.5474  169.3004 C.ar    1  UNL1        0.0000
     21 C         142.2764  141.9761  170.6462 C.ar    1  UNL1        0.0000
     22 C         142.1083  140.4947  170.8114 C.ar    1  UNL1        0.0000
     23 C         142.2753  139.5847  169.6309 C.ar    1  UNL1       -0.0000
     24 C         142.6104  140.1560  168.2850 C.ar    1  UNL1       -0.0000
     25 C         142.7774  139.2459  167.1044 C.ar    1  UNL1       -0.0000
@<TRIPOS>BOND
     1     2     3    1
     2     3     1    1
     3     1    14    1
     4    14    15    2
     5    15    16    1
     6    16    17   ar
     7    17    18   ar
     8    18    19   ar
     9    19    20   ar
    10    20    21   ar
    11    21    22   ar
    12    22    23   ar
    13    23    24   ar
    14    24    25   ar
    15     3     4    1
    16     4     5    1
    17     5     6   ar
    18     6     7   ar
    19     7     8   ar
    20     8     9   ar
    21     9    10   ar
    22     9    11    1
    23    11    12    1
    24    12    13    1
    25    25    16   ar
    26    10     5   ar
    27    24    19   ar
    28    13     8    1
@<TRIPOS>MOLECULE
*****
 25 28 0 0 0
SMALL
GASTEIGER

@<TRIPOS>ATOM
      1 C         138.4926  137.9417  162.4641 C.3     1  UNL1        0.0992
      2 C         139.3905  138.3940  160.0684 C.3     1  UNL1        0.0902
      3 N         138.4767  138.7530  161.2024 N.3     1  UNL1       -0.2639
      4 C         137.5470  139.9231  161.0749 C.3     1  UNL1        0.0994
      5 C         137.9003  141.2346  161.7115 C.ar    1  UNL1       -0.0062
      6 C         137.3717  141.5734  163.0738 C.ar    1  UNL1        0.0002
      7 C         137.7250  142.8849  163.7105 C.ar    1  UNL1        0.0363
      8 C         138.6067  143.8575  162.9849 C.ar    1  UNL1        0.1346
      9 C         139.1353  143.5186  161.6225 C.ar    1  UNL1        0.0153
     10 C         138.7820  142.2072  160.9859 C.ar    1  UNL1       -0.0041
     11 C         139.9767  144.6680  161.1527 C.3     1  UNL1        0.0767
     12 C         139.9683  145.7173  162.2247 C.3     1  UNL1        0.2102
     13 O         139.1216  145.2163  163.3570 O.3     1  UNL1       -0.4754
     14 C         139.4182  138.3147  163.5840 C.2     1  UNL1       -0.0088
     15 C         138.8606  138.8295  164.8778 C.2     1  UNL1       -0.0032
     16 C         139.7862  139.2026  165.9978 C.ar    1  UNL1       -0.0003
     17 C         141.2704  139.0864  165.8144 C.ar    1  UNL1       -0.0000
     18 C         142.1959  139.4594  166.9342 C.ar    1  UNL1       -0.0000
     19 C         141.6373  139.9485  168.2376 C.ar    1  UNL1       -0.0000
     20 C         142.5629  140.3215  169.3575 C.ar    1  UNL1        0.0000
     21 C         142.0042  140.8107  170.6608 C.ar    1  UNL1        0.0000
     22 C         140.5200  140.9268  170.8442 C.ar    1  UNL1        0.0000
     23 C         139.5944  140.5538  169.7243 C.ar    1  UNL1       -0.0000
     24 C         140.1531  140.0647  168.4210 C.ar    1  UNL1       -0.0000
     25 C         139.2275  139.6917  167.3011 C.ar    1  UNL1       -0.0000
@<TRIPOS>BOND
     1     2     3    1
     2     3     1    1
     3     1    14    1
     4    14    15    2
     5    15    16    1
     6    16    17   ar
     7    17    18   ar
     8    18    19   ar
     9    19    20   ar
    10    20    21   ar
    11    21    22   ar
    12    22    23   ar
    13    23    24   ar
    14    24    25   ar
    15     3     4    1
    16     4     5    1
    17     5     6   ar
    18     6     7   ar
    19     7     8   ar
    20     8     9   ar
    21     9    10   ar
    22     9    11    1
    23    11    12    1
    24    12    13    1
    25    25    16   ar
    26    10     5   ar
    27    24    19   ar
    28    13     8    1
@<TRIPOS>MOLECULE
*****
 25 28 0 0 0
SMALL
GASTEIGER

@<TRIPOS>ATOM
      1 C         138.1844  139.2878  163.2950 C.3     1  UNL1        0.0992
      2 C         137.5407  139.9982  160.8802 C.3     1  UNL1        0.0902
      3 N         137.7035  140.3336  162.3331 N.3     1  UNL1       -0.2639
      4 C         137.3853  141.7148  162.8243 C.3     1  UNL1        0.0994
      5 C         138.4949  142.6500  163.2037 C.ar    1  UNL1       -0.0062
      6 C         138.3240  143.5848  164.3642 C.ar    1  UNL1        0.0002
      7 C         139.4336  144.5201  164.7437 C.ar    1  UNL1        0.0363
      8 C         140.7142  144.5205  163.9626 C.ar    1  UNL1        0.1346
      9 C         140.8851  143.5857  162.8020 C.ar    1  UNL1        0.0153
     10 C         139.7755  142.6505  162.4226 C.ar    1  UNL1       -0.0041
     11 C         142.2504  143.8106  162.2229 C.3     1  UNL1        0.0767
     12 C         142.9232  144.8845  163.0255 C.3     1  UNL1        0.2102
     13 O         141.9738  145.3232  164.1007 O.3     1  UNL1       -0.4754
     14 C         138.8244  139.6962  164.5887 C.2     1  UNL1       -0.0088
     15 C         140.3182  139.7860  164.6909 C.2     1  UNL1       -0.0032
     16 C         140.9583  140.1944  165.9846 C.ar    1  UNL1       -0.0003
     17 C         142.0732  139.3735  166.5617 C.ar    1  UNL1       -0.0000
     18 C         142.7133  139.7818  167.8553 C.ar    1  UNL1       -0.0000
     19 C         142.2384  141.0111  168.5719 C.ar    1  UNL1       -0.0000
     20 C         142.8785  141.4195  169.8655 C.ar    1  UNL1        0.0000
     21 C         142.4036  142.6487  170.5820 C.ar    1  UNL1        0.0000
     22 C         141.2886  143.4695  170.0050 C.ar    1  UNL1        0.0000
     23 C         140.6486  143.0612  168.7113 C.ar    1  UNL1       -0.0000
     24 C         141.1234  141.8320  167.9948 C.ar    1  UNL1       -0.0000
     25 C         140.4834  141.4236  166.7011 C.ar    1  UNL1       -0.0000
@<TRIPOS>BOND
     1     2     3    1
     2     3     1    1
     3     1    14    1
     4    14    15    2
     5    15    16    1
     6    16    17   ar
     7    17    18   ar
     8    18    19   ar
     9    19    20   ar
    10    20    21   ar
    11    21    22   ar
    12    22    23   ar
    13    23    24   ar
    14    24    25   ar
    15     3     4    1
    16     4     5    1
    17     5     6   ar
    18     6     7   ar
    19     7     8   ar
    20     8     9   ar
    21     9    10   ar
    22     9    11    1
    23    11    12    1
    24    12    13    1
    25    25    16   ar
    26    10     5   ar
    27    24    19   ar
    28    13     8    1
@<TRIPOS>MOLECULE
*****
 25 28 0 0 0
SMALL
GASTEIGER

@<TRIPOS>ATOM
      1 C         141.1552  137.0439  163.2694 C.3     1  UNL1        0.0992
      2 C         141.3297  137.9643  160.8460 C.3     1  UNL1        0.0902
      3 N         140.5239  137.7171  162.0868 N.3     1  UNL1       -0.2639
      4 C         139.0868  138.1430  162.1452 C.3     1  UNL1        0.0994
      5 C         138.7374  139.6015  162.1728 C.ar    1  UNL1       -0.0062
      6 C         138.4791  140.3352  160.8903 C.ar    1  UNL1        0.0002
      7 C         138.1297  141.7937  160.9180 C.ar    1  UNL1        0.0363
      8 C         138.0384  142.5184  162.2282 C.ar    1  UNL1        0.1346
      9 C         138.2967  141.7845  163.5107 C.ar    1  UNL1        0.0153
     10 C         138.6462  140.3261  163.4830 C.ar    1  UNL1       -0.0041
     11 C         138.1345  142.7565  164.6416 C.3     1  UNL1        0.0767
     12 C         137.7760  144.0911  164.0580 C.3     1  UNL1        0.2102
     13 O         137.7167  143.9439  162.5664 O.3     1  UNL1       -0.4754
     14 C         141.1583  137.7240  164.6063 C.2     1  UNL1       -0.0088
     15 C         141.9577  138.9770  164.8084 C.2     1  UNL1       -0.0032
     16 C         141.9609  139.6572  166.1453 C.ar    1  UNL1       -0.0003
     17 C         142.7521  139.0772  167.2800 C.ar    1  UNL1       -0.0000
     18 C         142.7553  139.7573  168.6169 C.ar    1  UNL1       -0.0000
     19 C         141.9672  141.0176  168.8192 C.ar    1  UNL1       -0.0000
     20 C         141.9704  141.6977  170.1561 C.ar    1  UNL1        0.0000
     21 C         141.1824  142.9578  170.3583 C.ar    1  UNL1        0.0000
     22 C         140.3911  143.5379  169.2236 C.ar    1  UNL1        0.0000
     23 C         140.3879  142.8577  167.8867 C.ar    1  UNL1       -0.0000
     24 C         141.1760  141.5976  167.6845 C.ar    1  UNL1       -0.0000
     25 C         141.1728  140.9174  166.3475 C.ar    1  UNL1       -0.0000
@<TRIPOS>BOND
     1     2     3    1
     2     3     1    1
     3     1    14    1
     4    14    15    2
     5    15    16    1
     6    16    17   ar
     7    17    18   ar
     8    18    19   ar
     9    19    20   ar
    10    20    21   ar
    11    21    22   ar
    12    22    23   ar
    13    23    24   ar
    14    24    25   ar
    15     3     4    1
    16     4     5    1
    17     5     6   ar
    18     6     7   ar
    19     7     8   ar
    20     8     9   ar
    21     9    10   ar
    22     9    11    1
    23    11    12    1
    24    12    13    1
    25    25    16   ar
    26    10     5   ar
    27    24    19   ar
    28    13     8    1
@<TRIPOS>MOLECULE
*****
 25 28 0 0 0
SMALL
GASTEIGER

@<TRIPOS>ATOM
      1 C         138.5303  138.4197  161.3663 C.3     1  UNL1        0.0992
      2 C         139.8230  138.8311  159.1505 C.3     1  UNL1        0.0902
      3 N         138.9450  139.3387  160.2556 N.3     1  UNL1       -0.2639
      4 C         138.4816  140.7653  160.2501 C.3     1  UNL1        0.0994
      5 C         138.9806  141.7200  161.2939 C.ar    1  UNL1       -0.0062
      6 C         140.4501  141.9944  161.4181 C.ar    1  UNL1        0.0002
      7 C         140.9492  142.9491  162.4619 C.ar    1  UNL1        0.0363
      8 C         139.9788  143.6294  163.3814 C.ar    1  UNL1        0.1346
      9 C         138.5093  143.3550  163.2572 C.ar    1  UNL1        0.0153
     10 C         138.0103  142.4003  162.2134 C.ar    1  UNL1       -0.0041
     11 C         137.7965  144.1680  164.2968 C.3     1  UNL1        0.0767
     12 C         138.8254  144.9449  165.0636 C.3     1  UNL1        0.2102
     13 O         140.1741  144.6120  164.4978 O.3     1  UNL1       -0.4754
     14 C         138.9669  138.6994  162.7737 C.2     1  UNL1       -0.0088
     15 C         138.0313  139.3807  163.7279 C.2     1  UNL1       -0.0032
     16 C         138.4680  139.6605  165.1354 C.ar    1  UNL1       -0.0003
     17 C         137.9856  138.7896  166.2574 C.ar    1  UNL1       -0.0000
     18 C         138.4222  139.0693  167.6649 C.ar    1  UNL1       -0.0000
     19 C         139.3412  140.2200  167.9505 C.ar    1  UNL1       -0.0000
     20 C         139.7778  140.4997  169.3580 C.ar    1  UNL1        0.0000
     21 C         140.6968  141.6503  169.6434 C.ar    1  UNL1        0.0000
     22 C         141.1791  142.5212  168.5214 C.ar    1  UNL1        0.0000
     23 C         140.7425  142.2415  167.1140 C.ar    1  UNL1       -0.0000
     24 C         139.8236  141.0909  166.8285 C.ar    1  UNL1       -0.0000
     25 C         139.3869  140.8111  165.4209 C.ar    1  UNL1       -0.0000
@<TRIPOS>BOND
     1     2     3    1
     2     3     1    1
     3     1    14    1
     4    14    15    2
     5    15    16    1
     6    16    17   ar
     7    17    18   ar
     8    18    19   ar
     9    19    20   ar
    10    20    21   ar
    11    21    22   ar
    12    22    23   ar
    13    23    24   ar
    14    24    25   ar
    15     3     4    1
    16     4     5    1
    17     5     6   ar
    18     6     7   ar
    19     7     8   ar
    20     8     9   ar
    21     9    10   ar
    22     9    11    1
    23    11    12    1
    24    12    13    1
    25    25    16   ar
    26    10     5   ar
    27    24    19   ar
    28    13     8    1
