@<TRIPOS>MOLECULE
*****
 32 36 0 0 0
SMALL
GASTEIGER

@<TRIPOS>ATOM
      1 C         142.8016  138.7700  163.6007 C.3     1  UNL1        0.0870
      2 C         141.8647  138.1023  164.5632 C.3     1  UNL1        0.0226
      3 C         142.1575  138.6298  165.9365 C.3     1  UNL1        0.0033
      4 C         142.6685  139.3273  167.1622 C.3     1  UNL1        0.0159
      5 C         143.2754  139.6234  165.8228 C.3     1  UNL1        0.0033
      6 C         143.6735  139.7100  164.3792 C.3     1  UNL1        0.0226
      7 F         138.9470  138.9851  157.6233 F       1  UNL1       -0.2017
      8 C         139.8719  138.8960  158.8010 C.ar    1  UNL1        0.1690
      9 C         141.2957  138.4659  158.6056 C.ar    1  UNL1        0.0526
     10 C         142.2205  138.3769  159.7832 C.ar    1  UNL1        0.1011
     11 N         143.6642  137.9864  159.8983 N.ar    1  UNL1       -0.2239
     12 C         144.0576  138.0861  161.3423 C.ar    1  UNL1        0.1785
     13 N         142.8570  138.5382  162.1197 N.ar    1  UNL1       -0.3109
     14 C         141.7216  138.7179  161.1561 C.ar    1  UNL1        0.0813
     15 C         140.2979  139.1480  161.3514 C.ar    1  UNL1        0.0507
     16 C         139.3731  139.2371  160.1738 C.ar    1  UNL1        0.1689
     17 F         137.9494  139.6672  160.3692 F       1  UNL1       -0.2017
     18 C         142.6132  139.5590  168.6432 C.3     1  UNL1        0.0689
     19 N         141.2876  139.6412  169.3403 N.3     1  UNL1       -0.2882
     20 H         141.4838  139.8089  170.3271 H       1  UNL1        0.1237
     21 C         140.2807  140.6697  168.9182 C.3     1  UNL1        0.1731
     22 C         139.6515  140.5897  167.5588 C.ar    1  UNL1        0.0003
     23 C         138.7827  139.4201  167.2022 C.ar    1  UNL1       -0.0018
     24 C         138.1535  139.3401  165.8429 C.ar    1  UNL1        0.0111
     25 C         138.3931  140.4296  164.8403 C.ar    1  UNL1        0.0577
     26 CL        137.7639  140.3496  163.4810 Cl      1  UNL1       -0.0822
     27 C         139.2619  141.5993  165.1969 C.ar    1  UNL1        0.0111
     28 C         139.8911  141.6793  166.5562 C.ar    1  UNL1       -0.0018
     29 C         139.9028  141.7782  169.8554 C.3     1  UNL1        0.4142
     30 F         139.5250  142.8869  170.7925 F       1  UNL1       -0.1682
     31 F         138.6123  141.0785  170.1630 F       1  UNL1       -0.1682
     32 F         141.1934  142.4781  169.5478 F       1  UNL1       -0.1682
@<TRIPOS>BOND
     1     7     8    1
     2     8     9   ar
     3     9    10   ar
     4    10    11   ar
     5    11    12   ar
     6    12    13   ar
     7     1    13    1
     8     1     2    1
     9     3     2    1
    10     3     4    1
    11     4    18    1
    12    18    19    1
    13    19    21    1
    14    21    22    1
    15    22    23   ar
    16    23    24   ar
    17    24    25   ar
    18    25    26    1
    19    25    27   ar
    20    27    28   ar
    21    21    29    1
    22    29    30    1
    23    29    31    1
    24    29    32    1
    25     4     5    1
    26     5     6    1
    27    13    14   ar
    28    14    15   ar
    29    15    16   ar
    30    16    17    1
    31    16     8   ar
    32    14    10   ar
    33     6     1    1
    34     5     3    1
    35    28    22   ar
    36    19    20    1
@<TRIPOS>MOLECULE
*****
 32 36 0 0 0
SMALL
GASTEIGER

@<TRIPOS>ATOM
      1 C         139.1029  139.6700  163.8797 C.3     1  UNL1        0.0870
      2 C         139.1795  138.5500  164.8745 C.3     1  UNL1        0.0226
      3 C         139.2855  139.1528  166.2439 C.3     1  UNL1        0.0033
      4 C         139.3796  140.0279  167.4585 C.3     1  UNL1        0.0159
      5 C         139.2745  140.6454  166.0956 C.3     1  UNL1        0.0033
      6 C         139.1616  140.9650  164.6344 C.3     1  UNL1        0.0226
      7 F         142.6809  137.8074  158.0178 F       1  UNL1       -0.2017
      8 C         141.8120  138.2256  159.1669 C.ar    1  UNL1        0.1690
      9 C         140.3928  138.6443  158.9203 C.ar    1  UNL1        0.0526
     10 C         139.5239  139.0625  160.0693 C.ar    1  UNL1        0.1011
     11 N         138.0976  139.5222  160.1336 N.ar    1  UNL1       -0.2239
     12 C         137.7663  139.8057  161.5689 C.ar    1  UNL1        0.1785
     13 N         138.9879  139.5212  162.3915 N.ar    1  UNL1       -0.3109
     14 C         140.0742  139.0619  161.4648 C.ar    1  UNL1        0.0813
     15 C         141.4933  138.6432  161.7112 C.ar    1  UNL1        0.0507
     16 C         142.3622  138.2250  160.5622 C.ar    1  UNL1        0.1689
     17 F         143.7814  137.8063  160.8087 F       1  UNL1       -0.2017
     18 C         139.4947  140.1767  168.9467 C.3     1  UNL1        0.0689
     19 N         140.8460  140.1812  169.5977 N.3     1  UNL1       -0.2882
     20 H         141.1541  139.2099  169.6433 H       1  UNL1        0.1237
     21 C         141.9703  140.9638  168.9867 C.3     1  UNL1        0.1731
     22 C         142.5743  140.5194  167.6874 C.ar    1  UNL1        0.0003
     23 C         142.9008  139.0719  167.4684 C.ar    1  UNL1       -0.0018
     24 C         143.5047  138.6275  166.1693 C.ar    1  UNL1        0.0111
     25 C         143.7822  139.6306  165.0892 C.ar    1  UNL1        0.0577
     26 CL        144.3861  139.1862  163.7901 Cl      1  UNL1       -0.0822
     27 C         143.4557  141.0782  165.3082 C.ar    1  UNL1        0.0111
     28 C         142.8517  141.5226  166.6073 C.ar    1  UNL1       -0.0018
     29 C         142.4908  142.1909  169.6747 C.3     1  UNL1        0.4142
     30 F         143.0113  143.4179  170.3628 F       1  UNL1       -0.1682
     31 F         141.2087  142.9066  169.3683 F       1  UNL1       -0.1682
     32 F         143.7729  141.4751  169.9811 F       1  UNL1       -0.1682
@<TRIPOS>BOND
     1     7     8    1
     2     8     9   ar
     3     9    10   ar
     4    10    11   ar
     5    11    12   ar
     6    12    13   ar
     7     1    13    1
     8     1     2    1
     9     3     2    1
    10     3     4    1
    11     4    18    1
    12    18    19    1
    13    19    21    1
    14    21    22    1
    15    22    23   ar
    16    23    24   ar
    17    24    25   ar
    18    25    26    1
    19    25    27   ar
    20    27    28   ar
    21    21    29    1
    22    29    30    1
    23    29    31    1
    24    29    32    1
    25     4     5    1
    26     5     6    1
    27    13    14   ar
    28    14    15   ar
    29    15    16   ar
    30    16    17    1
    31    16     8   ar
    32    14    10   ar
    33     6     1    1
    34     5     3    1
    35    28    22   ar
    36    19    20    1
@<TRIPOS>MOLECULE
*****
 32 36 0 0 0
SMALL
GASTEIGER

@<TRIPOS>ATOM
      1 C         143.4772  141.2557  164.4656 C.3     1  UNL1        0.0870
      2 C         143.0989  139.8395  164.7839 C.3     1  UNL1        0.0226
      3 C         142.8682  139.7426  166.2629 C.3     1  UNL1        0.0033
      4 C         142.7096  139.9509  167.7399 C.3     1  UNL1        0.0159
      5 C         143.1038  141.0989  166.8587 C.3     1  UNL1        0.0033
      6 C         143.4802  142.0340  165.7479 C.3     1  UNL1        0.0226
      7 F         140.5840  144.0049  158.5746 F       1  UNL1       -0.2017
      8 C         141.3236  143.4406  159.7513 C.ar    1  UNL1        0.1690
      9 C         142.8181  143.3180  159.7092 C.ar    1  UNL1        0.0526
     10 C         143.5577  142.7537  160.8858 C.ar    1  UNL1        0.1011
     11 N         145.0176  142.5130  161.1322 N.ar    1  UNL1       -0.2239
     12 C         145.1651  141.9226  162.5032 C.ar    1  UNL1        0.1785
     13 N         143.7964  141.7983  163.1041 N.ar    1  UNL1       -0.3109
     14 C         142.8029  142.3120  162.1046 C.ar    1  UNL1        0.0813
     15 C         141.3085  142.4346  162.1466 C.ar    1  UNL1        0.0507
     16 C         140.5689  142.9989  160.9700 C.ar    1  UNL1        0.1689
     17 F         139.0745  143.1215  161.0121 F       1  UNL1       -0.2017
     18 C         142.3904  139.4083  169.1014 C.3     1  UNL1        0.0689
     19 N         140.9997  139.5300  169.6501 N.3     1  UNL1       -0.2882
     20 H         141.0918  139.6851  170.6541 H       1  UNL1        0.1237
     21 C         140.0788  140.5938  169.1304 C.3     1  UNL1        0.1731
     22 C         139.5317  140.4970  167.7370 C.ar    1  UNL1        0.0003
     23 C         138.7599  139.2813  167.3171 C.ar    1  UNL1       -0.0018
     24 C         138.2129  139.1845  165.9238 C.ar    1  UNL1        0.0111
     25 C         138.4375  140.3034  164.9504 C.ar    1  UNL1        0.0577
     26 CL        137.8905  140.2066  163.5571 Cl      1  UNL1       -0.0822
     27 C         139.2094  141.5191  165.3703 C.ar    1  UNL1        0.0111
     28 C         139.7564  141.6159  166.7636 C.ar    1  UNL1       -0.0018
     29 C         139.7048  141.7545  170.0039 C.3     1  UNL1        0.4142
     30 F         139.3308  142.9151  170.8774 F       1  UNL1       -0.1682
     31 F         141.0421  142.3817  169.7432 F       1  UNL1       -0.1682
     32 F         138.3674  141.1272  170.2646 F       1  UNL1       -0.1682
@<TRIPOS>BOND
     1     7     8    1
     2     8     9   ar
     3     9    10   ar
     4    10    11   ar
     5    11    12   ar
     6    12    13   ar
     7     1    13    1
     8     1     2    1
     9     3     2    1
    10     3     4    1
    11     4    18    1
    12    18    19    1
    13    19    21    1
    14    21    22    1
    15    22    23   ar
    16    23    24   ar
    17    24    25   ar
    18    25    26    1
    19    25    27   ar
    20    27    28   ar
    21    21    29    1
    22    29    30    1
    23    29    31    1
    24    29    32    1
    25     4     5    1
    26     5     6    1
    27    13    14   ar
    28    14    15   ar
    29    15    16   ar
    30    16    17    1
    31    16     8   ar
    32    14    10   ar
    33     6     1    1
    34     5     3    1
    35    28    22   ar
    36    19    20    1
@<TRIPOS>MOLECULE
*****
 32 36 0 0 0
SMALL
GASTEIGER

@<TRIPOS>ATOM
      1 C         142.7890  138.8998  163.9790 C.3     1  UNL1        0.0870
      2 C         141.5228  138.9323  164.7826 C.3     1  UNL1        0.0226
      3 C         141.8952  139.0715  166.2289 C.3     1  UNL1        0.0033
      4 C         142.5614  139.2099  167.5657 C.3     1  UNL1        0.0159
      5 C         143.3915  139.1250  166.3193 C.3     1  UNL1        0.0033
      6 C         143.9439  139.0188  164.9287 C.3     1  UNL1        0.0226
      7 F         144.6150  142.3621  158.0367 F       1  UNL1       -0.2017
      8 C         144.1967  141.5184  159.2043 C.ar    1  UNL1        0.1690
      9 C         143.7077  140.1180  158.9807 C.ar    1  UNL1        0.0526
     10 C         143.2893  139.2743  160.1482 C.ar    1  UNL1        0.1011
     11 N         142.7693  137.8702  160.2367 N.ar    1  UNL1       -0.2239
     12 C         142.5186  137.5590  161.6824 C.ar    1  UNL1        0.1785
     13 N         142.8837  138.7708  162.4876 N.ar    1  UNL1       -0.3109
     14 C         143.3600  139.8310  161.5394 C.ar    1  UNL1        0.0813
     15 C         143.8490  141.2313  161.7629 C.ar    1  UNL1        0.0507
     16 C         144.2673  142.0750  160.5954 C.ar    1  UNL1        0.1689
     17 F         144.7564  143.4753  160.8190 F       1  UNL1       -0.2017
     18 C         142.4668  139.3389  169.0572 C.3     1  UNL1        0.0689
     19 N         141.9114  140.5913  169.6679 N.3     1  UNL1       -0.2882
     20 H         142.1209  140.5505  170.6653 H       1  UNL1        0.1237
     21 C         142.3759  141.9323  169.1824 C.3     1  UNL1        0.1731
     22 C         142.1653  142.3258  167.7502 C.ar    1  UNL1        0.0003
     23 C         143.3460  142.5477  166.8521 C.ar    1  UNL1       -0.0018
     24 C         143.1354  142.9412  165.4200 C.ar    1  UNL1        0.0111
     25 C         141.7443  143.1127  164.8861 C.ar    1  UNL1        0.0577
     26 CL        141.5337  143.5061  163.4540 Cl      1  UNL1       -0.0822
     27 C         140.5636  142.8907  165.7843 C.ar    1  UNL1        0.0111
     28 C         140.7741  142.4972  167.2164 C.ar    1  UNL1       -0.0018
     29 C         143.0512  142.8800  170.1289 C.3     1  UNL1        0.4142
     30 F         143.7265  143.8277  171.0755 F       1  UNL1       -0.1682
     31 F         141.8180  143.7334  170.1543 F       1  UNL1       -0.1682
     32 F         144.2845  142.0266  170.1035 F       1  UNL1       -0.1682
@<TRIPOS>BOND
     1     7     8    1
     2     8     9   ar
     3     9    10   ar
     4    10    11   ar
     5    11    12   ar
     6    12    13   ar
     7     1    13    1
     8     1     2    1
     9     3     2    1
    10     3     4    1
    11     4    18    1
    12    18    19    1
    13    19    21    1
    14    21    22    1
    15    22    23   ar
    16    23    24   ar
    17    24    25   ar
    18    25    26    1
    19    25    27   ar
    20    27    28   ar
    21    21    29    1
    22    29    30    1
    23    29    31    1
    24    29    32    1
    25     4     5    1
    26     5     6    1
    27    13    14   ar
    28    14    15   ar
    29    15    16   ar
    30    16    17    1
    31    16     8   ar
    32    14    10   ar
    33     6     1    1
    34     5     3    1
    35    28    22   ar
    36    19    20    1
@<TRIPOS>MOLECULE
*****
 32 36 0 0 0
SMALL
GASTEIGER

@<TRIPOS>ATOM
      1 C         139.4297  141.7843  163.5988 C.3     1  UNL1        0.0870
      2 C         139.2739  142.6079  164.8428 C.3     1  UNL1        0.0226
      3 C         139.3965  141.6914  166.0239 C.3     1  UNL1        0.0033
      4 C         139.5588  140.5530  166.9870 C.3     1  UNL1        0.0159
      5 C         139.6281  140.3014  165.5099 C.3     1  UNL1        0.0033
      6 C         139.6486  140.3588  164.0112 C.3     1  UNL1        0.0226
      7 F         143.4419  143.9803  158.1479 F       1  UNL1       -0.2017
      8 C         142.4799  143.5424  159.2123 C.ar    1  UNL1        0.1690
      9 C         141.0041  143.5650  158.9446 C.ar    1  UNL1        0.0526
     10 C         140.0421  143.1271  160.0089 C.ar    1  UNL1        0.1011
     11 N         138.5448  143.0413  160.0348 N.ar    1  UNL1       -0.2239
     12 C         138.1332  142.5279  161.3827 C.ar    1  UNL1        0.1785
     13 N         139.3761  142.2963  162.1899 N.ar    1  UNL1       -0.3109
     14 C         140.5559  142.6667  161.3409 C.ar    1  UNL1        0.0813
     15 C         142.0316  142.6442  161.6085 C.ar    1  UNL1        0.0507
     16 C         142.9936  143.0820  160.5441 C.ar    1  UNL1        0.1689
     17 F         144.4694  143.0595  160.8118 F       1  UNL1       -0.2017
     18 C         139.6124  140.0410  168.3959 C.3     1  UNL1        0.0689
     19 N         140.8936  140.1149  169.1724 N.3     1  UNL1       -0.2882
     20 H         141.2334  139.1583  169.2716 H       1  UNL1        0.1237
     21 C         142.0402  140.9298  168.6518 C.3     1  UNL1        0.1731
     22 C         142.6931  140.5618  167.3524 C.ar    1  UNL1        0.0003
     23 C         142.9837  139.1238  167.0400 C.ar    1  UNL1       -0.0018
     24 C         143.6366  138.7558  165.7406 C.ar    1  UNL1        0.0111
     25 C         143.9987  139.8256  164.7537 C.ar    1  UNL1        0.0577
     26 CL        144.6516  139.4576  163.4544 Cl      1  UNL1       -0.0822
     27 C         143.7081  141.2637  165.0661 C.ar    1  UNL1        0.0111
     28 C         143.0553  141.6317  166.3655 C.ar    1  UNL1       -0.0018
     29 C         142.5341  142.1129  169.4306 C.3     1  UNL1        0.4142
     30 F         143.0281  143.2959  170.2093 F       1  UNL1       -0.1682
     31 F         141.3422  142.9056  168.9825 F       1  UNL1       -0.1682
     32 F         143.7261  141.3202  169.8787 F       1  UNL1       -0.1682
@<TRIPOS>BOND
     1     7     8    1
     2     8     9   ar
     3     9    10   ar
     4    10    11   ar
     5    11    12   ar
     6    12    13   ar
     7     1    13    1
     8     1     2    1
     9     3     2    1
    10     3     4    1
    11     4    18    1
    12    18    19    1
    13    19    21    1
    14    21    22    1
    15    22    23   ar
    16    23    24   ar
    17    24    25   ar
    18    25    26    1
    19    25    27   ar
    20    27    28   ar
    21    21    29    1
    22    29    30    1
    23    29    31    1
    24    29    32    1
    25     4     5    1
    26     5     6    1
    27    13    14   ar
    28    14    15   ar
    29    15    16   ar
    30    16    17    1
    31    16     8   ar
    32    14    10   ar
    33     6     1    1
    34     5     3    1
    35    28    22   ar
    36    19    20    1
@<TRIPOS>MOLECULE
*****
 32 36 0 0 0
SMALL
GASTEIGER

@<TRIPOS>ATOM
      1 C         139.1514  139.7727  166.6349 C.3     1  UNL1        0.0870
      2 C         139.0684  138.3547  166.1528 C.3     1  UNL1        0.0226
      3 C         138.7230  138.3809  164.6933 C.3     1  UNL1        0.0033
      4 C         138.3800  138.7182  163.2725 C.3     1  UNL1        0.0159
      5 C         138.5926  139.8150  164.2734 C.3     1  UNL1        0.0033
      6 C         138.8573  140.6751  165.4734 C.3     1  UNL1        0.0226
      7 F         143.9119  143.2930  170.5819 F       1  UNL1       -0.2017
      8 C         142.8333  142.5284  169.8730 C.ar    1  UNL1        0.1690
      9 C         141.6718  141.9782  170.6466 C.ar    1  UNL1        0.0526
     10 C         140.5934  141.2137  169.9379 C.ar    1  UNL1        0.1011
     11 N         139.3378  140.5581  170.4315 N.ar    1  UNL1       -0.2239
     12 C         138.6448  139.9385  169.2543 C.ar    1  UNL1        0.1785
     13 N         139.4721  140.2112  168.0331 N.ar    1  UNL1       -0.3109
     14 C         140.6764  140.9993  168.4556 C.ar    1  UNL1        0.0813
     15 C         141.8379  141.5494  167.6821 C.ar    1  UNL1        0.0507
     16 C         142.9163  142.3140  168.3909 C.ar    1  UNL1        0.1689
     17 F         144.0778  142.8641  167.6173 F       1  UNL1       -0.2017
     18 C         138.0593  138.2797  161.8744 C.3     1  UNL1        0.0689
     19 N         139.1353  137.7001  161.0047 N.3     1  UNL1       -0.2882
     20 H         138.6933  137.4408  160.1228 H       1  UNL1        0.1237
     21 C         140.3431  138.5196  160.6593 C.3     1  UNL1        0.1731
     22 C         141.2457  139.0209  161.7475 C.ar    1  UNL1        0.0003
     23 C         141.9571  138.0475  162.6397 C.ar    1  UNL1       -0.0018
     24 C         142.8597  138.5488  163.7278 C.ar    1  UNL1        0.0111
     25 C         143.0508  140.0235  163.9237 C.ar    1  UNL1        0.0577
     26 CL        143.9534  140.5248  165.0119 Cl      1  UNL1       -0.0822
     27 C         142.3393  140.9971  163.0315 C.ar    1  UNL1        0.0111
     28 C         141.4368  140.4958  161.9433 C.ar    1  UNL1       -0.0018
     29 C         140.6485  138.8378  159.2256 C.3     1  UNL1        0.4142
     30 F         140.9539  139.1561  157.7919 F       1  UNL1       -0.1682
     31 F         141.8512  137.9434  159.2831 F       1  UNL1       -0.1682
     32 F         139.4458  139.7323  159.1680 F       1  UNL1       -0.1682
@<TRIPOS>BOND
     1     7     8    1
     2     8     9   ar
     3     9    10   ar
     4    10    11   ar
     5    11    12   ar
     6    12    13   ar
     7     1    13    1
     8     1     2    1
     9     3     2    1
    10     3     4    1
    11     4    18    1
    12    18    19    1
    13    19    21    1
    14    21    22    1
    15    22    23   ar
    16    23    24   ar
    17    24    25   ar
    18    25    26    1
    19    25    27   ar
    20    27    28   ar
    21    21    29    1
    22    29    30    1
    23    29    31    1
    24    29    32    1
    25     4     5    1
    26     5     6    1
    27    13    14   ar
    28    14    15   ar
    29    15    16   ar
    30    16    17    1
    31    16     8   ar
    32    14    10   ar
    33     6     1    1
    34     5     3    1
    35    28    22   ar
    36    19    20    1
@<TRIPOS>MOLECULE
*****
 32 36 0 0 0
SMALL
GASTEIGER

@<TRIPOS>ATOM
      1 C         139.9546  143.5976  163.5457 C.3     1  UNL1        0.0870
      2 C         138.9795  144.0568  164.5889 C.3     1  UNL1        0.0226
      3 C         139.5312  143.6871  165.9338 C.3     1  UNL1        0.0033
      4 C         140.3213  143.2001  167.1123 C.3     1  UNL1        0.0159
      5 C         140.8473  142.9994  165.7219 C.3     1  UNL1        0.0033
      6 C         141.1090  142.9441  164.2460 C.3     1  UNL1        0.0226
      7 F         137.7638  140.3316  157.6156 F       1  UNL1       -0.2017
      8 C         138.2593  141.1347  158.7817 C.ar    1  UNL1        0.1690
      9 C         138.7865  142.5225  158.5667 C.ar    1  UNL1        0.0526
     10 C         139.2820  143.3255  159.7327 C.ar    1  UNL1        0.1011
     11 N         139.8533  144.7091  159.8282 N.ar    1  UNL1       -0.2239
     12 C         140.1748  144.9794  161.2682 C.ar    1  UNL1        0.1785
     13 N         139.8022  143.7629  162.0627 N.ar    1  UNL1       -0.3109
     14 C         139.2504  142.7407  161.1137 C.ar    1  UNL1        0.0813
     15 C         138.7233  141.3529  161.3286 C.ar    1  UNL1        0.0507
     16 C         138.2277  140.5499  160.1625 C.ar    1  UNL1        0.1689
     17 F         137.7006  139.1621  160.3775 F       1  UNL1       -0.2017
     18 C         140.4737  143.0349  168.5953 C.3     1  UNL1        0.0689
     19 N         140.1446  141.7217  169.2413 N.3     1  UNL1       -0.2882
     20 H         139.1390  141.5861  169.1370 H       1  UNL1        0.1237
     21 C         140.8034  140.4631  168.7601 C.3     1  UNL1        0.1731
     22 C         140.3128  139.7892  167.5129 C.ar    1  UNL1        0.0003
     23 C         141.2799  139.4323  166.4234 C.ar    1  UNL1       -0.0018
     24 C         140.7893  138.7584  165.1763 C.ar    1  UNL1        0.0111
     25 C         139.3317  138.4415  165.0188 C.ar    1  UNL1        0.0577
     26 CL        138.8412  137.7676  163.7717 Cl      1  UNL1       -0.0822
     27 C         138.3646  138.7985  166.1084 C.ar    1  UNL1        0.0111
     28 C         138.8552  139.4723  167.3555 C.ar    1  UNL1       -0.0018
     29 C         141.9530  139.8782  169.5259 C.3     1  UNL1        0.4142
     30 F         143.1025  139.2932  170.2918 F       1  UNL1       -0.1682
     31 F         142.9080  140.7291  168.7425 F       1  UNL1       -0.1682
     32 F         140.9979  139.0273  170.3094 F       1  UNL1       -0.1682
@<TRIPOS>BOND
     1     7     8    1
     2     8     9   ar
     3     9    10   ar
     4    10    11   ar
     5    11    12   ar
     6    12    13   ar
     7     1    13    1
     8     1     2    1
     9     3     2    1
    10     3     4    1
    11     4    18    1
    12    18    19    1
    13    19    21    1
    14    21    22    1
    15    22    23   ar
    16    23    24   ar
    17    24    25   ar
    18    25    26    1
    19    25    27   ar
    20    27    28   ar
    21    21    29    1
    22    29    30    1
    23    29    31    1
    24    29    32    1
    25     4     5    1
    26     5     6    1
    27    13    14   ar
    28    14    15   ar
    29    15    16   ar
    30    16    17    1
    31    16     8   ar
    32    14    10   ar
    33     6     1    1
    34     5     3    1
    35    28    22   ar
    36    19    20    1
@<TRIPOS>MOLECULE
*****
 32 36 0 0 0
SMALL
GASTEIGER

@<TRIPOS>ATOM
      1 C         141.2164  139.2011  165.6407 C.3     1  UNL1        0.0870
      2 C         142.6315  138.7207  165.5113 C.3     1  UNL1        0.0226
      3 C         142.9091  138.4830  164.0565 C.3     1  UNL1        0.0033
      4 C         142.8901  138.3394  162.5635 C.3     1  UNL1        0.0159
      5 C         141.6657  138.8165  163.2868 C.3     1  UNL1        0.0033
      6 C         140.6195  139.2604  164.2658 C.3     1  UNL1        0.0226
      7 F         142.1127  142.3478  171.9596 F       1  UNL1       -0.2017
      8 C         141.7858  141.6588  170.6678 C.ar    1  UNL1        0.1690
      9 C         140.4070  141.1155  170.4356 C.ar    1  UNL1        0.0526
     10 C         140.0801  140.4267  169.1439 C.ar    1  UNL1        0.1011
     11 N         138.8185  139.7951  168.6345 N.ar    1  UNL1       -0.2239
     12 C         139.0907  139.2591  167.2602 C.ar    1  UNL1        0.1785
     13 N         140.5204  139.5595  166.9202 N.ar    1  UNL1       -0.3109
     14 C         141.1320  140.2811  168.0844 C.ar    1  UNL1        0.0813
     15 C         142.5107  140.8243  168.3167 C.ar    1  UNL1        0.0507
     16 C         142.8376  141.5132  169.6084 C.ar    1  UNL1        0.1689
     17 F         144.2164  142.0565  169.8406 F       1  UNL1       -0.2017
     18 C         143.5861  137.9811  161.2840 C.3     1  UNL1        0.0689
     19 N         144.3800  139.0181  160.5462 N.3     1  UNL1       -0.2882
     20 H         144.3766  138.7470  159.5629 H       1  UNL1        0.1237
     21 C         143.9651  140.4585  160.5996 C.3     1  UNL1        0.1731
     22 C         144.0868  141.2271  161.8821 C.ar    1  UNL1        0.0003
     23 C         142.9693  142.1225  162.3287 C.ar    1  UNL1       -0.0018
     24 C         143.0910  142.8910  163.6111 C.ar    1  UNL1        0.0111
     25 C         144.3300  142.7642  164.4469 C.ar    1  UNL1        0.0577
     26 CL        144.4516  143.5327  165.7292 Cl      1  UNL1       -0.0822
     27 C         145.4475  141.8688  164.0002 C.ar    1  UNL1        0.0111
     28 C         145.3259  141.1003  162.7178 C.ar    1  UNL1       -0.0018
     29 C         143.4285  141.1306  159.3707 C.3     1  UNL1        0.4142
     30 F         142.8919  141.8026  158.1417 F       1  UNL1       -0.1682
     31 F         144.6555  141.9908  159.3052 F       1  UNL1       -0.1682
     32 F         142.2014  140.2704  159.4361 F       1  UNL1       -0.1682
@<TRIPOS>BOND
     1     7     8    1
     2     8     9   ar
     3     9    10   ar
     4    10    11   ar
     5    11    12   ar
     6    12    13   ar
     7     1    13    1
     8     1     2    1
     9     3     2    1
    10     3     4    1
    11     4    18    1
    12    18    19    1
    13    19    21    1
    14    21    22    1
    15    22    23   ar
    16    23    24   ar
    17    24    25   ar
    18    25    26    1
    19    25    27   ar
    20    27    28   ar
    21    21    29    1
    22    29    30    1
    23    29    31    1
    24    29    32    1
    25     4     5    1
    26     5     6    1
    27    13    14   ar
    28    14    15   ar
    29    15    16   ar
    30    16    17    1
    31    16     8   ar
    32    14    10   ar
    33     6     1    1
    34     5     3    1
    35    28    22   ar
    36    19    20    1
@<TRIPOS>MOLECULE
*****
 32 36 0 0 0
SMALL
GASTEIGER

@<TRIPOS>ATOM
      1 C         139.4487  139.6406  166.6850 C.3     1  UNL1        0.0870
      2 C         140.4933  138.9286  165.8777 C.3     1  UNL1        0.0226
      3 C         139.9022  138.6041  164.5378 C.3     1  UNL1        0.0033
      4 C         139.0557  138.4205  163.3131 C.3     1  UNL1        0.0159
      5 C         138.4923  139.1156  164.5170 C.3     1  UNL1        0.0033
      6 C         138.2120  139.7561  165.8441 C.3     1  UNL1        0.0226
      7 F         143.6633  143.5028  170.9221 F       1  UNL1       -0.2017
      8 C         142.6887  142.6682  170.1450 C.ar    1  UNL1        0.1690
      9 C         141.4754  142.1050  170.8239 C.ar    1  UNL1        0.0526
     10 C         140.5009  141.2705  170.0468 C.ar    1  UNL1        0.1011
     11 N         139.2258  140.5868  170.4427 N.ar    1  UNL1       -0.2239
     12 C         138.6765  139.8930  169.2316 C.ar    1  UNL1        0.1785
     13 N         139.6120  140.1479  168.0871 N.ar    1  UNL1       -0.3109
     14 C         140.7396  140.9992  168.5910 C.ar    1  UNL1        0.0813
     15 C         141.9528  141.5625  167.9122 C.ar    1  UNL1        0.0507
     16 C         142.9274  142.3970  168.6893 C.ar    1  UNL1        0.1689
     17 F         144.1407  142.9603  168.0104 F       1  UNL1       -0.2017
     18 C         138.8924  137.9132  161.9110 C.3     1  UNL1        0.0689
     19 N         139.3477  138.7504  160.7527 N.3     1  UNL1       -0.2882
     20 H         139.1403  138.2200  159.9065 H       1  UNL1        0.1237
     21 C         138.7812  140.1246  160.5521 C.3     1  UNL1        0.1731
     22 C         138.9568  141.1706  161.6129 C.ar    1  UNL1        0.0003
     23 C         137.7562  141.8466  162.2057 C.ar    1  UNL1       -0.0018
     24 C         137.9318  142.8925  163.2664 C.ar    1  UNL1        0.0111
     25 C         139.3081  143.2625  163.7344 C.ar    1  UNL1        0.0577
     26 CL        139.4837  144.3084  164.7951 Cl      1  UNL1       -0.0822
     27 C         140.5087  142.5865  163.1415 C.ar    1  UNL1        0.0111
     28 C         140.3331  141.5406  162.0808 C.ar    1  UNL1       -0.0018
     29 C         138.0389  140.4531  159.2907 C.3     1  UNL1        0.4142
     30 F         137.2965  140.7816  158.0293 F       1  UNL1       -0.1682
     31 F         139.2559  141.1473  158.7551 F       1  UNL1       -0.1682
     32 F         136.8218  139.7590  159.8262 F       1  UNL1       -0.1682
@<TRIPOS>BOND
     1     7     8    1
     2     8     9   ar
     3     9    10   ar
     4    10    11   ar
     5    11    12   ar
     6    12    13   ar
     7     1    13    1
     8     1     2    1
     9     3     2    1
    10     3     4    1
    11     4    18    1
    12    18    19    1
    13    19    21    1
    14    21    22    1
    15    22    23   ar
    16    23    24   ar
    17    24    25   ar
    18    25    26    1
    19    25    27   ar
    20    27    28   ar
    21    21    29    1
    22    29    30    1
    23    29    31    1
    24    29    32    1
    25     4     5    1
    26     5     6    1
    27    13    14   ar
    28    14    15   ar
    29    15    16   ar
    30    16    17    1
    31    16     8   ar
    32    14    10   ar
    33     6     1    1
    34     5     3    1
    35    28    22   ar
    36    19    20    1
