@<TRIPOS>MOLECULE
*****
 34 38 0 0 0
SMALL
GASTEIGER

@<TRIPOS>ATOM
      1 C         140.9905  138.8786  161.0663 C.ar    1  UNL1        0.0840
      2 C         140.3121  138.3346  159.8441 C.ar    1  UNL1        0.0370
      3 C         141.2480  138.4975  158.6832 C.ar    1  UNL1        0.0966
      4 N         142.5048  139.1422  159.1879 N.ar    1  UNL1       -0.1681
      5 N         142.3456  139.3777  160.6608 N.ar    1  UNL1       -0.2299
      6 C         143.3631  140.0027  161.5687 C.ar    1  UNL1        0.0829
      7 C         143.8716  141.3854  161.2862 C.ar    1  UNL1        0.0215
      8 C         144.8890  142.0103  162.1941 C.ar    1  UNL1        0.0312
      9 C         145.3979  141.2527  163.3845 C.ar    1  UNL1        0.1402
     10 F         146.4153  141.8777  164.2924 F       1  UNL1       -0.2042
     11 C         144.8894  139.8701  163.6669 C.ar    1  UNL1        0.0312
     12 C         143.8720  139.2451  162.7590 C.ar    1  UNL1        0.0215
     13 C         139.2635  138.9931  165.2201 C.ar    1  UNL1       -0.0225
     14 C         139.6870  137.6854  164.6198 C.ar    1  UNL1       -0.0042
     15 C         140.2627  137.6472  163.2351 C.ar    1  UNL1        0.0012
     16 C         140.4148  138.9167  162.4509 C.ar    1  UNL1        0.0177
     17 C         139.9913  140.2244  163.0512 C.ar    1  UNL1        0.0012
     18 C         139.4156  140.2626  164.4358 C.ar    1  UNL1       -0.0042
     19 C         137.4942  138.1886  166.9442 C.3     1  UNL1        0.0047
     20 C         138.6878  139.0313  166.6047 C.3     1  UNL1        0.0224
     21 C         139.3057  139.9121  167.6498 C.3     1  UNL1        0.0047
     22 C         140.9750  138.0876  157.2663 C.3     1  UNL1        0.1206
     23 N         141.5283  136.7970  156.7391 N.3     1  UNL1       -0.2646
     24 C         142.7984  136.2373  157.3082 C.3     1  UNL1        0.0941
     25 C         143.3517  134.9467  156.7809 C.3     1  UNL1        0.1095
     26 N         142.6350  134.2157  155.6845 N.pl3   1  UNL1       -0.2904
     27 C         141.3651  134.7753  155.1154 C.3     1  UNL1        0.1095
     28 C         140.8117  136.0660  155.6427 C.3     1  UNL1        0.0941
     29 C         143.1884  132.9250  155.1572 C.ar    1  UNL1        0.1318
     30 C         144.1349  132.1170  155.9947 C.ar    1  UNL1        0.0343
     31 C         144.6883  130.8264  155.4674 C.ar    1  UNL1        0.0045
     32 C         144.2952  130.3437  154.1028 C.ar    1  UNL1        0.0208
     33 C         143.3486  131.1517  153.2653 C.ar    1  UNL1        0.1003
     34 N         142.7953  132.4423  153.7926 N.ar    1  UNL1       -0.2292
@<TRIPOS>BOND
     1    19    20    1
     2    20    21    1
     3    20    13    1
     4    13    14   ar
     5    14    15   ar
     6    15    16   ar
     7    16     1    1
     8     1     2   ar
     9     2     3   ar
    10     3    22    1
    11    22    23    1
    12    23    24    1
    13    24    25    1
    14    25    26    1
    15    26    29    1
    16    29    30   ar
    17    30    31   ar
    18    31    32   ar
    19    32    33   ar
    20    33    34   ar
    21    26    27    1
    22    27    28    1
    23     3     4   ar
    24     4     5   ar
    25     5     6    1
    26     6     7   ar
    27     7     8   ar
    28     8     9   ar
    29     9    10    1
    30     9    11   ar
    31    11    12   ar
    32    16    17   ar
    33    17    18   ar
    34    18    13   ar
    35     5     1   ar
    36    12     6   ar
    37    28    23    1
    38    34    29   ar
@<TRIPOS>MOLECULE
*****
 34 38 0 0 0
SMALL
GASTEIGER

@<TRIPOS>ATOM
      1 C         142.2688  141.9711  164.0936 C.ar    1  UNL1        0.0840
      2 C         143.0951  142.7843  163.1419 C.ar    1  UNL1        0.0370
      3 C         143.0088  142.1433  161.7885 C.ar    1  UNL1        0.0966
      4 N         142.1291  140.9338  161.9038 N.ar    1  UNL1       -0.1681
      5 N         141.6717  140.8274  163.3284 N.ar    1  UNL1       -0.2299
      6 C         140.7747  139.7641  163.8894 C.ar    1  UNL1        0.0829
      7 C         141.3031  138.3779  164.1120 C.ar    1  UNL1        0.0215
      8 C         140.4061  137.3145  164.6730 C.ar    1  UNL1        0.0312
      9 C         138.9808  137.6372  165.0112 C.ar    1  UNL1        0.1402
     10 F         138.0838  136.5738  165.5721 F       1  UNL1       -0.2042
     11 C         138.4525  139.0233  164.7886 C.ar    1  UNL1        0.0312
     12 C         139.3495  140.0867  164.2276 C.ar    1  UNL1        0.0215
     13 C         141.6836  142.8144  168.4750 C.ar    1  UNL1       -0.0225
     14 C         140.5339  142.9613  167.5229 C.ar    1  UNL1       -0.0042
     15 C         140.7289  142.6802  166.0624 C.ar    1  UNL1        0.0012
     16 C         142.0737  142.2522  165.5541 C.ar    1  UNL1        0.0177
     17 C         143.2234  142.1054  166.5062 C.ar    1  UNL1        0.0012
     18 C         143.0283  142.3865  167.9667 C.ar    1  UNL1       -0.0042
     19 C         142.6787  143.2418  170.8366 C.3     1  UNL1        0.0047
     20 C         141.4885  143.0955  169.9354 C.3     1  UNL1        0.0224
     21 C         140.1033  143.2304  170.4948 C.3     1  UNL1        0.0047
     22 C         143.6837  142.6267  160.5393 C.3     1  UNL1        0.1206
     23 N         142.9347  143.4906  159.5684 N.3     1  UNL1       -0.2646
     24 C         141.8694  144.4242  160.0623 C.3     1  UNL1        0.0941
     25 C         141.1203  145.2881  159.0914 C.3     1  UNL1        0.1095
     26 N         141.4365  145.2184  157.6268 N.pl3   1  UNL1       -0.2904
     27 C         142.5016  144.2850  157.1329 C.3     1  UNL1        0.1095
     28 C         143.2508  143.4210  158.1038 C.3     1  UNL1        0.0941
     29 C         140.6874  146.0824  156.6559 C.ar    1  UNL1        0.1318
     30 C         141.0554  146.0695  155.2018 C.ar    1  UNL1        0.0343
     31 C         140.3064  146.9334  154.2309 C.ar    1  UNL1        0.0045
     32 C         139.1893  147.8101  154.7140 C.ar    1  UNL1        0.0208
     33 C         138.8213  147.8230  156.1681 C.ar    1  UNL1        0.1003
     34 N         139.5704  146.9591  157.1390 N.ar    1  UNL1       -0.2292
@<TRIPOS>BOND
     1    19    20    1
     2    20    21    1
     3    20    13    1
     4    13    14   ar
     5    14    15   ar
     6    15    16   ar
     7    16     1    1
     8     1     2   ar
     9     2     3   ar
    10     3    22    1
    11    22    23    1
    12    23    24    1
    13    24    25    1
    14    25    26    1
    15    26    29    1
    16    29    30   ar
    17    30    31   ar
    18    31    32   ar
    19    32    33   ar
    20    33    34   ar
    21    26    27    1
    22    27    28    1
    23     3     4   ar
    24     4     5   ar
    25     5     6    1
    26     6     7   ar
    27     7     8   ar
    28     8     9   ar
    29     9    10    1
    30     9    11   ar
    31    11    12   ar
    32    16    17   ar
    33    17    18   ar
    34    18    13   ar
    35     5     1   ar
    36    12     6   ar
    37    28    23    1
    38    34    29   ar
@<TRIPOS>MOLECULE
*****
 34 38 0 0 0
SMALL
GASTEIGER

@<TRIPOS>ATOM
      1 C         142.7030  139.4681  160.3320 C.ar    1  UNL1        0.0840
      2 C         143.2579  139.3389  158.9444 C.ar    1  UNL1        0.0370
      3 C         142.6811  138.0989  158.3281 C.ar    1  UNL1        0.0966
      4 N         141.7697  137.4618  159.3348 N.ar    1  UNL1       -0.1681
      5 N         141.7833  138.3080  160.5732 N.ar    1  UNL1       -0.2299
      6 C         141.0124  138.0409  161.8320 C.ar    1  UNL1        0.0829
      7 C         139.5202  138.1939  161.8444 C.ar    1  UNL1        0.0215
      8 C         138.7493  137.9268  163.1031 C.ar    1  UNL1        0.0312
      9 C         139.4706  137.5068  164.3495 C.ar    1  UNL1        0.1402
     10 F         138.6997  137.2397  165.6082 F       1  UNL1       -0.2042
     11 C         140.9627  137.3539  164.3371 C.ar    1  UNL1        0.0312
     12 C         141.7335  137.6210  163.0783 C.ar    1  UNL1        0.0215
     13 C         143.6340  142.7584  163.2573 C.ar    1  UNL1       -0.0225
     14 C         144.5512  141.5773  163.1400 C.ar    1  UNL1       -0.0042
     15 C         144.2409  140.4806  162.1650 C.ar    1  UNL1        0.0012
     16 C         143.0133  140.5649  161.3071 C.ar    1  UNL1        0.0177
     17 C         142.0961  141.7460  161.4243 C.ar    1  UNL1        0.0012
     18 C         142.4065  142.8427  162.3994 C.ar    1  UNL1       -0.0042
     19 C         144.6609  143.5405  165.5120 C.3     1  UNL1        0.0047
     20 C         143.9444  143.8552  164.2324 C.3     1  UNL1        0.0224
     21 C         143.5381  145.2666  163.9278 C.3     1  UNL1        0.0047
     22 C         142.9657  137.5862  156.9475 C.3     1  UNL1        0.1206
     23 N         142.6697  136.1567  156.6025 N.3     1  UNL1       -0.2646
     24 C         143.3753  135.0488  157.3268 C.3     1  UNL1        0.0941
     25 C         143.0793  133.6193  156.9818 C.3     1  UNL1        0.1095
     26 N         142.0775  133.2979  155.9126 N.pl3   1  UNL1       -0.2904
     27 C         141.3719  134.4057  155.1884 C.3     1  UNL1        0.1095
     28 C         141.6679  135.8353  155.5334 C.3     1  UNL1        0.0941
     29 C         141.7814  131.8683  155.5676 C.ar    1  UNL1        0.1318
     30 C         140.5874  131.5322  154.7242 C.ar    1  UNL1        0.0343
     31 C         140.2913  130.1028  154.3792 C.ar    1  UNL1        0.0045
     32 C         141.1891  129.0095  154.8776 C.ar    1  UNL1        0.0208
     33 C         142.3831  129.3456  155.7210 C.ar    1  UNL1        0.1003
     34 N         142.6792  130.7750  156.0660 N.ar    1  UNL1       -0.2292
@<TRIPOS>BOND
     1    19    20    1
     2    20    21    1
     3    20    13    1
     4    13    14   ar
     5    14    15   ar
     6    15    16   ar
     7    16     1    1
     8     1     2   ar
     9     2     3   ar
    10     3    22    1
    11    22    23    1
    12    23    24    1
    13    24    25    1
    14    25    26    1
    15    26    29    1
    16    29    30   ar
    17    30    31   ar
    18    31    32   ar
    19    32    33   ar
    20    33    34   ar
    21    26    27    1
    22    27    28    1
    23     3     4   ar
    24     4     5   ar
    25     5     6    1
    26     6     7   ar
    27     7     8   ar
    28     8     9   ar
    29     9    10    1
    30     9    11   ar
    31    11    12   ar
    32    16    17   ar
    33    17    18   ar
    34    18    13   ar
    35     5     1   ar
    36    12     6   ar
    37    28    23    1
    38    34    29   ar
@<TRIPOS>MOLECULE
*****
 34 38 0 0 0
SMALL
GASTEIGER

@<TRIPOS>ATOM
      1 C         142.7010  141.4298  164.1538 C.ar    1  UNL1        0.0840
      2 C         143.7520  140.9126  163.2169 C.ar    1  UNL1        0.0370
      3 C         143.3692  141.3146  161.8234 C.ar    1  UNL1        0.0966
      4 N         142.0816  142.0803  161.8991 N.ar    1  UNL1       -0.1681
      5 N         141.6686  142.1515  163.3394 N.ar    1  UNL1       -0.2299
      6 C         140.4391  142.8260  163.8717 C.ar    1  UNL1        0.0829
      7 C         140.5329  144.2051  164.4543 C.ar    1  UNL1        0.0215
      8 C         139.3034  144.8796  164.9866 C.ar    1  UNL1        0.0312
      9 C         137.9801  144.1750  164.9364 C.ar    1  UNL1        0.1402
     10 F         136.7506  144.8495  165.4688 F       1  UNL1       -0.2042
     11 C         137.8864  142.7960  164.3539 C.ar    1  UNL1        0.0312
     12 C         139.1159  142.1215  163.8216 C.ar    1  UNL1        0.0215
     13 C         142.6535  140.9080  168.6232 C.ar    1  UNL1       -0.0225
     14 C         142.2468  139.7727  167.7312 C.ar    1  UNL1       -0.0042
     15 C         142.2627  139.9467  166.2414 C.ar    1  UNL1        0.0012
     16 C         142.6852  141.2559  165.6436 C.ar    1  UNL1        0.0177
     17 C         143.0919  142.3911  166.5356 C.ar    1  UNL1        0.0012
     18 C         143.0760  142.2172  168.0254 C.ar    1  UNL1       -0.0042
     19 C         141.9955  141.7738  170.9827 C.3     1  UNL1        0.0047
     20 C         142.6377  140.7341  170.1130 C.3     1  UNL1        0.0224
     21 C         143.2640  139.5203  170.7331 C.3     1  UNL1        0.0047
     22 C         144.1389  141.0053  160.5736 C.3     1  UNL1        0.1206
     23 N         143.6842  139.9002  159.6670 N.3     1  UNL1       -0.2646
     24 C         143.6145  140.1260  158.1857 C.3     1  UNL1        0.0941
     25 C         143.1598  139.0210  157.2791 C.3     1  UNL1        0.1095
     26 N         142.7747  137.6900  157.8537 N.pl3   1  UNL1       -0.2904
     27 C         142.8443  137.4641  159.3349 C.3     1  UNL1        0.1095
     28 C         143.2991  138.5692  160.2416 C.3     1  UNL1        0.0941
     29 C         142.3200  136.5848  156.9471 C.ar    1  UNL1        0.1318
     30 C         141.2036  136.8243  155.9743 C.ar    1  UNL1        0.0343
     31 C         140.7489  135.7192  155.0677 C.ar    1  UNL1        0.0045
     32 C         141.4104  134.3747  155.1338 C.ar    1  UNL1        0.0208
     33 C         142.5268  134.1352  156.1067 C.ar    1  UNL1        0.1003
     34 N         142.9816  135.2403  157.0133 N.ar    1  UNL1       -0.2292
@<TRIPOS>BOND
     1    19    20    1
     2    20    21    1
     3    20    13    1
     4    13    14   ar
     5    14    15   ar
     6    15    16   ar
     7    16     1    1
     8     1     2   ar
     9     2     3   ar
    10     3    22    1
    11    22    23    1
    12    23    24    1
    13    24    25    1
    14    25    26    1
    15    26    29    1
    16    29    30   ar
    17    30    31   ar
    18    31    32   ar
    19    32    33   ar
    20    33    34   ar
    21    26    27    1
    22    27    28    1
    23     3     4   ar
    24     4     5   ar
    25     5     6    1
    26     6     7   ar
    27     7     8   ar
    28     8     9   ar
    29     9    10    1
    30     9    11   ar
    31    11    12   ar
    32    16    17   ar
    33    17    18   ar
    34    18    13   ar
    35     5     1   ar
    36    12     6   ar
    37    28    23    1
    38    34    29   ar
@<TRIPOS>MOLECULE
*****
 34 38 0 0 0
SMALL
GASTEIGER

@<TRIPOS>ATOM
      1 C         140.6729  140.3652  161.2783 C.ar    1  UNL1        0.0840
      2 C         140.2983  139.6181  160.0327 C.ar    1  UNL1        0.0370
      3 C         141.0282  140.2423  158.8805 C.ar    1  UNL1        0.0966
      4 N         141.8538  141.3754  159.4139 N.ar    1  UNL1       -0.1681
      5 N         141.6342  141.4513  160.8958 N.ar    1  UNL1       -0.2299
      6 C         142.2652  142.4398  161.8311 C.ar    1  UNL1        0.0829
      7 C         143.4732  142.0503  162.6307 C.ar    1  UNL1        0.0215
      8 C         144.1042  143.0388  163.5660 C.ar    1  UNL1        0.0312
      9 C         143.5273  144.4167  163.7017 C.ar    1  UNL1        0.1402
     10 F         144.1583  145.4052  164.6369 F       1  UNL1       -0.2042
     11 C         142.3195  144.8062  162.9021 C.ar    1  UNL1        0.0312
     12 C         141.6885  143.8177  161.9668 C.ar    1  UNL1        0.0215
     13 C         139.1755  139.5004  165.4327 C.ar    1  UNL1       -0.0225
     14 C         140.4976  138.9530  164.9830 C.ar    1  UNL1       -0.0042
     15 C         140.9967  139.2413  163.5981 C.ar    1  UNL1        0.0012
     16 C         140.1737  140.0769  162.6631 C.ar    1  UNL1        0.0177
     17 C         138.8516  140.6243  163.1129 C.ar    1  UNL1        0.0012
     18 C         138.3525  140.3360  164.4977 C.ar    1  UNL1       -0.0042
     19 C         139.3167  139.8779  167.9993 C.3     1  UNL1        0.0047
     20 C         138.6763  139.2121  166.8176 C.3     1  UNL1        0.0224
     21 C         137.5368  138.2580  167.0206 C.3     1  UNL1        0.0047
     22 C         140.9467  139.8096  157.4466 C.3     1  UNL1        0.1206
     23 N         141.3072  138.4043  157.0657 N.3     1  UNL1       -0.2646
     24 C         142.5549  137.7758  157.6117 C.3     1  UNL1        0.0941
     25 C         142.9154  136.3705  157.2309 C.3     1  UNL1        0.1095
     26 N         142.0281  135.5936  156.3039 N.pl3   1  UNL1       -0.2904
     27 C         140.7804  136.2220  155.7579 C.3     1  UNL1        0.1095
     28 C         140.4199  137.6274  156.1388 C.3     1  UNL1        0.0941
     29 C         142.3886  134.1882  155.9230 C.ar    1  UNL1        0.1318
     30 C         142.5330  133.8167  154.4769 C.ar    1  UNL1        0.0343
     31 C         142.8934  132.4114  154.0960 C.ar    1  UNL1        0.0045
     32 C         143.1095  131.3776  155.1610 C.ar    1  UNL1        0.0208
     33 C         142.9652  131.7491  156.6071 C.ar    1  UNL1        0.1003
     34 N         142.6047  133.1544  156.9881 N.ar    1  UNL1       -0.2292
@<TRIPOS>BOND
     1    19    20    1
     2    20    21    1
     3    20    13    1
     4    13    14   ar
     5    14    15   ar
     6    15    16   ar
     7    16     1    1
     8     1     2   ar
     9     2     3   ar
    10     3    22    1
    11    22    23    1
    12    23    24    1
    13    24    25    1
    14    25    26    1
    15    26    29    1
    16    29    30   ar
    17    30    31   ar
    18    31    32   ar
    19    32    33   ar
    20    33    34   ar
    21    26    27    1
    22    27    28    1
    23     3     4   ar
    24     4     5   ar
    25     5     6    1
    26     6     7   ar
    27     7     8   ar
    28     8     9   ar
    29     9    10    1
    30     9    11   ar
    31    11    12   ar
    32    16    17   ar
    33    17    18   ar
    34    18    13   ar
    35     5     1   ar
    36    12     6   ar
    37    28    23    1
    38    34    29   ar
@<TRIPOS>MOLECULE
*****
 34 38 0 0 0
SMALL
GASTEIGER

@<TRIPOS>ATOM
      1 C         140.9614  142.2755  164.1370 C.ar    1  UNL1        0.0840
      2 C         141.2900  143.2566  163.0510 C.ar    1  UNL1        0.0370
      3 C         140.5832  142.8196  161.8022 C.ar    1  UNL1        0.0966
      4 N         139.8177  141.5685  162.1165 N.ar    1  UNL1       -0.1681
      5 N         140.0515  141.2322  163.5595 N.ar    1  UNL1       -0.2299
      6 C         139.4764  140.0587  164.2956 C.ar    1  UNL1        0.0829
      7 C         138.4371  140.2743  165.3557 C.ar    1  UNL1        0.0215
      8 C         137.8620  139.1007  166.0919 C.ar    1  UNL1        0.0312
      9 C         138.3260  137.7116  165.7681 C.ar    1  UNL1        0.1402
     10 F         137.7508  136.5380  166.5043 F       1  UNL1       -0.2042
     11 C         139.3651  137.4959  164.7081 C.ar    1  UNL1        0.0312
     12 C         139.9403  138.6695  163.9719 C.ar    1  UNL1        0.0215
     13 C         142.4450  142.4343  168.3825 C.ar    1  UNL1       -0.0225
     14 C         140.9933  142.6682  168.0860 C.ar    1  UNL1       -0.0042
     15 C         140.4988  142.6153  166.6709 C.ar    1  UNL1        0.0012
     16 C         141.4560  142.3284  165.5522 C.ar    1  UNL1        0.0177
     17 C         142.9076  142.0945  165.8486 C.ar    1  UNL1        0.0012
     18 C         143.4021  142.1475  167.2638 C.ar    1  UNL1       -0.0042
     19 C         144.3982  142.7002  170.0749 C.3     1  UNL1        0.0047
     20 C         142.9395  142.4873  169.7976 C.3     1  UNL1        0.0224
     21 C         141.9754  142.3273  170.9355 C.3     1  UNL1        0.0047
     22 C         140.6330  143.5122  160.4726 C.3     1  UNL1        0.1206
     23 N         141.7313  143.1938  159.5018 N.3     1  UNL1       -0.2646
     24 C         143.1248  142.9484  159.9999 C.3     1  UNL1        0.0941
     25 C         144.2230  142.6300  159.0292 C.3     1  UNL1        0.1095
     26 N         143.9278  142.5570  157.5603 N.pl3   1  UNL1       -0.2904
     27 C         142.5345  142.8023  157.0622 C.3     1  UNL1        0.1095
     28 C         141.4361  143.1208  158.0330 C.3     1  UNL1        0.0941
     29 C         145.0262  142.2386  156.5895 C.ar    1  UNL1        0.1318
     30 C         146.4583  142.4533  156.9805 C.ar    1  UNL1        0.0343
     31 C         147.5566  142.1349  156.0097 C.ar    1  UNL1        0.0045
     32 C         147.2228  141.6018  154.6480 C.ar    1  UNL1        0.0208
     33 C         145.7906  141.3871  154.2570 C.ar    1  UNL1        0.1003
     34 N         144.6924  141.7055  155.2278 N.ar    1  UNL1       -0.2292
@<TRIPOS>BOND
     1    19    20    1
     2    20    21    1
     3    20    13    1
     4    13    14   ar
     5    14    15   ar
     6    15    16   ar
     7    16     1    1
     8     1     2   ar
     9     2     3   ar
    10     3    22    1
    11    22    23    1
    12    23    24    1
    13    24    25    1
    14    25    26    1
    15    26    29    1
    16    29    30   ar
    17    30    31   ar
    18    31    32   ar
    19    32    33   ar
    20    33    34   ar
    21    26    27    1
    22    27    28    1
    23     3     4   ar
    24     4     5   ar
    25     5     6    1
    26     6     7   ar
    27     7     8   ar
    28     8     9   ar
    29     9    10    1
    30     9    11   ar
    31    11    12   ar
    32    16    17   ar
    33    17    18   ar
    34    18    13   ar
    35     5     1   ar
    36    12     6   ar
    37    28    23    1
    38    34    29   ar
@<TRIPOS>MOLECULE
*****
 34 38 0 0 0
SMALL
GASTEIGER

@<TRIPOS>ATOM
      1 C         142.2110  138.5172  160.4880 C.ar    1  UNL1        0.0840
      2 C         142.9457  137.7126  159.4571 C.ar    1  UNL1        0.0370
      3 C         142.3517  138.0247  158.1156 C.ar    1  UNL1        0.0966
      4 N         141.2499  139.0224  158.3173 N.ar    1  UNL1       -0.1681
      5 N         141.1629  139.3267  159.7835 N.ar    1  UNL1       -0.2299
      6 C         140.1974  140.2743  160.4315 C.ar    1  UNL1        0.0829
      7 C         140.5452  141.7277  160.5607 C.ar    1  UNL1        0.0215
      8 C         139.5797  142.6753  161.2087 C.ar    1  UNL1        0.0312
      9 C         138.2663  142.1695  161.7274 C.ar    1  UNL1        0.1402
     10 F         137.3007  143.1170  162.3754 F       1  UNL1       -0.2042
     11 C         137.9184  140.7161  161.5982 C.ar    1  UNL1        0.0312
     12 C         138.8840  139.7686  160.9502 C.ar    1  UNL1        0.0215
     13 C         143.0105  138.5050  164.9164 C.ar    1  UNL1       -0.0225
     14 C         143.9458  139.2206  163.9873 C.ar    1  UNL1       -0.0042
     15 C         143.6793  139.2247  162.5112 C.ar    1  UNL1        0.0012
     16 C         142.4775  138.5131  161.9641 C.ar    1  UNL1        0.0177
     17 C         141.5422  137.7975  162.8931 C.ar    1  UNL1        0.0012
     18 C         141.8088  137.7934  164.3692 C.ar    1  UNL1       -0.0042
     19 C         144.2681  137.5361  166.9730 C.3     1  UNL1        0.0047
     20 C         143.2771  138.5009  166.3925 C.3     1  UNL1        0.0224
     21 C         142.5526  139.4616  167.2881 C.3     1  UNL1        0.0047
     22 C         142.7838  137.4416  156.8028 C.3     1  UNL1        0.1206
     23 N         142.5281  135.9940  156.5047 N.3     1  UNL1       -0.2646
     24 C         141.4815  135.6083  155.5018 C.3     1  UNL1        0.0941
     25 C         141.2258  134.1606  155.2037 C.3     1  UNL1        0.1095
     26 N         142.0166  133.0987  155.9086 N.pl3   1  UNL1       -0.2904
     27 C         143.0631  133.4843  156.9115 C.3     1  UNL1        0.1095
     28 C         143.3189  134.9321  157.2096 C.3     1  UNL1        0.0941
     29 C         141.7609  131.6509  155.6105 C.ar    1  UNL1        0.1318
     30 C         140.6086  131.2578  154.7343 C.ar    1  UNL1        0.0343
     31 C         140.3529  129.8101  154.4363 C.ar    1  UNL1        0.0045
     32 C         141.2494  128.7556  155.0143 C.ar    1  UNL1        0.0208
     33 C         142.4017  129.1488  155.8905 C.ar    1  UNL1        0.1003
     34 N         142.6574  130.5964  156.1886 N.ar    1  UNL1       -0.2292
@<TRIPOS>BOND
     1    19    20    1
     2    20    21    1
     3    20    13    1
     4    13    14   ar
     5    14    15   ar
     6    15    16   ar
     7    16     1    1
     8     1     2   ar
     9     2     3   ar
    10     3    22    1
    11    22    23    1
    12    23    24    1
    13    24    25    1
    14    25    26    1
    15    26    29    1
    16    29    30   ar
    17    30    31   ar
    18    31    32   ar
    19    32    33   ar
    20    33    34   ar
    21    26    27    1
    22    27    28    1
    23     3     4   ar
    24     4     5   ar
    25     5     6    1
    26     6     7   ar
    27     7     8   ar
    28     8     9   ar
    29     9    10    1
    30     9    11   ar
    31    11    12   ar
    32    16    17   ar
    33    17    18   ar
    34    18    13   ar
    35     5     1   ar
    36    12     6   ar
    37    28    23    1
    38    34    29   ar
@<TRIPOS>MOLECULE
*****
 34 38 0 0 0
SMALL
GASTEIGER

@<TRIPOS>ATOM
      1 C         142.3758  139.6005  164.0132 C.ar    1  UNL1        0.0840
      2 C         142.2732  138.3744  163.1552 C.ar    1  UNL1        0.0370
      3 C         142.9368  138.6701  161.8428 C.ar    1  UNL1        0.0966
      4 N         143.4495  140.0790  161.8897 N.ar    1  UNL1       -0.1681
      5 N         143.1027  140.6540  163.2311 N.ar    1  UNL1       -0.2299
      6 C         143.4262  142.0393  163.7068 C.ar    1  UNL1        0.0829
      7 C         144.3723  142.2366  164.8540 C.ar    1  UNL1        0.0215
      8 C         144.6958  143.6219  165.3297 C.ar    1  UNL1        0.0312
      9 C         144.0731  144.8100  164.6583 C.ar    1  UNL1        0.1402
     10 F         144.3966  146.1953  165.1340 F       1  UNL1       -0.2042
     11 C         143.1270  144.6127  163.5111 C.ar    1  UNL1        0.0312
     12 C         142.8036  143.2274  163.0354 C.ar    1  UNL1        0.0215
     13 C         140.7823  140.0410  168.1985 C.ar    1  UNL1       -0.0225
     14 C         139.9001  140.3454  167.0242 C.ar    1  UNL1       -0.0042
     15 C         140.4313  140.1986  165.6291 C.ar    1  UNL1        0.0012
     16 C         141.8446  139.7474  165.4083 C.ar    1  UNL1        0.0177
     17 C         142.7268  139.4429  166.5826 C.ar    1  UNL1        0.0012
     18 C         142.1956  139.5897  167.9777 C.ar    1  UNL1       -0.0042
     19 C         141.2000  140.2790  170.7516 C.3     1  UNL1        0.0047
     20 C         140.2511  140.1878  169.5936 C.3     1  UNL1        0.0224
     21 C         138.7710  140.2435  169.8306 C.3     1  UNL1        0.0047
     22 C         143.0652  137.7232  160.6866 C.3     1  UNL1        0.1206
     23 N         142.1275  137.8315  159.5209 N.3     1  UNL1       -0.2646
     24 C         140.7564  138.4089  159.7123 C.3     1  UNL1        0.0941
     25 C         139.8187  138.5172  158.5466 C.3     1  UNL1        0.1095
     26 N         140.2522  138.0481  157.1894 N.pl3   1  UNL1       -0.2904
     27 C         141.6232  137.4708  156.9978 C.3     1  UNL1        0.1095
     28 C         142.5610  137.3624  158.1637 C.3     1  UNL1        0.0941
     29 C         139.3145  138.1564  156.0235 C.ar    1  UNL1        0.1318
     30 C         139.3171  137.1003  154.9583 C.ar    1  UNL1        0.0343
     31 C         138.3795  137.2085  153.7925 C.ar    1  UNL1        0.0045
     32 C         137.4392  138.3728  153.6918 C.ar    1  UNL1        0.0208
     33 C         137.4367  139.4290  154.7570 C.ar    1  UNL1        0.1003
     34 N         138.3743  139.3207  155.9228 N.ar    1  UNL1       -0.2292
@<TRIPOS>BOND
     1    19    20    1
     2    20    21    1
     3    20    13    1
     4    13    14   ar
     5    14    15   ar
     6    15    16   ar
     7    16     1    1
     8     1     2   ar
     9     2     3   ar
    10     3    22    1
    11    22    23    1
    12    23    24    1
    13    24    25    1
    14    25    26    1
    15    26    29    1
    16    29    30   ar
    17    30    31   ar
    18    31    32   ar
    19    32    33   ar
    20    33    34   ar
    21    26    27    1
    22    27    28    1
    23     3     4   ar
    24     4     5   ar
    25     5     6    1
    26     6     7   ar
    27     7     8   ar
    28     8     9   ar
    29     9    10    1
    30     9    11   ar
    31    11    12   ar
    32    16    17   ar
    33    17    18   ar
    34    18    13   ar
    35     5     1   ar
    36    12     6   ar
    37    28    23    1
    38    34    29   ar
@<TRIPOS>MOLECULE
*****
 34 38 0 0 0
SMALL
GASTEIGER

@<TRIPOS>ATOM
      1 C         140.7287  141.9432  164.1479 C.ar    1  UNL1        0.0840
      2 C         141.0267  142.8517  162.9921 C.ar    1  UNL1        0.0370
      3 C         140.2783  142.3414  161.7965 C.ar    1  UNL1        0.0966
      4 N         139.5178  141.1175  162.2133 N.ar    1  UNL1       -0.1681
      5 N         139.7961  140.8714  163.6666 N.ar    1  UNL1       -0.2299
      6 C         139.2396  139.7504  164.4933 C.ar    1  UNL1        0.0829
      7 C         138.3507  140.0512  165.6637 C.ar    1  UNL1        0.0215
      8 C         137.7942  138.9301  166.4904 C.ar    1  UNL1        0.0312
      9 C         138.1265  137.5083  166.1469 C.ar    1  UNL1        0.1402
     10 F         137.5700  136.3872  166.9736 F       1  UNL1       -0.2042
     11 C         139.0153  137.2075  164.9766 C.ar    1  UNL1        0.0312
     12 C         139.5718  138.3286  164.1499 C.ar    1  UNL1        0.0215
     13 C         142.3479  142.3599  168.3258 C.ar    1  UNL1       -0.0225
     14 C         140.9355  142.7655  168.0249 C.ar    1  UNL1       -0.0042
     15 C         140.3957  142.6266  166.6323 C.ar    1  UNL1        0.0012
     16 C         141.2684  142.0821  165.5406 C.ar    1  UNL1        0.0177
     17 C         142.6808  141.6765  165.8414 C.ar    1  UNL1        0.0012
     18 C         143.2205  141.8154  167.2340 C.ar    1  UNL1       -0.0042
     19 C         141.9577  142.4310  170.8934 C.3     1  UNL1        0.0047
     20 C         142.8876  142.4988  169.7184 C.3     1  UNL1        0.0224
     21 C         144.3573  142.7055  169.9360 C.3     1  UNL1        0.0047
     22 C         140.2887  142.9484  160.4248 C.3     1  UNL1        0.1206
     23 N         139.7224  142.1867  159.2633 N.3     1  UNL1       -0.2646
     24 C         138.3905  142.5724  158.6912 C.3     1  UNL1        0.0941
     25 C         137.8242  141.8108  157.5297 C.3     1  UNL1        0.1095
     26 N         138.5898  140.6634  156.9403 N.pl3   1  UNL1       -0.2904
     27 C         139.9216  140.2777  157.5123 C.3     1  UNL1        0.1095
     28 C         140.4880  141.0394  158.6739 C.3     1  UNL1        0.0941
     29 C         138.0234  139.9017  155.7788 C.ar    1  UNL1        0.1318
     30 C         137.1008  140.5839  154.8127 C.ar    1  UNL1        0.0343
     31 C         136.5344  139.8222  153.6512 C.ar    1  UNL1        0.0045
     32 C         136.8907  138.3784  153.4557 C.ar    1  UNL1        0.0208
     33 C         137.8134  137.6962  154.4217 C.ar    1  UNL1        0.1003
     34 N         138.3797  138.4578  155.5833 N.ar    1  UNL1       -0.2292
@<TRIPOS>BOND
     1    19    20    1
     2    20    21    1
     3    20    13    1
     4    13    14   ar
     5    14    15   ar
     6    15    16   ar
     7    16     1    1
     8     1     2   ar
     9     2     3   ar
    10     3    22    1
    11    22    23    1
    12    23    24    1
    13    24    25    1
    14    25    26    1
    15    26    29    1
    16    29    30   ar
    17    30    31   ar
    18    31    32   ar
    19    32    33   ar
    20    33    34   ar
    21    26    27    1
    22    27    28    1
    23     3     4   ar
    24     4     5   ar
    25     5     6    1
    26     6     7   ar
    27     7     8   ar
    28     8     9   ar
    29     9    10    1
    30     9    11   ar
    31    11    12   ar
    32    16    17   ar
    33    17    18   ar
    34    18    13   ar
    35     5     1   ar
    36    12     6   ar
    37    28    23    1
    38    34    29   ar
