@<TRIPOS>MOLECULE
*****
 29 31 0 0 0
SMALL
GASTEIGER

@<TRIPOS>ATOM
      1 C         143.3022  138.5986  162.7629 C.ar    1  UNL1        0.0395
      2 C         144.4707  139.2099  163.4776 C.ar    1  UNL1        0.0063
      3 C         144.5053  139.2306  164.9770 C.ar    1  UNL1        0.0377
      4 C         143.3715  138.6401  165.7617 C.ar    1  UNL1        0.1473
      5 C         142.2030  138.0288  165.0469 C.ar    1  UNL1        0.0377
      6 C         142.1683  138.0081  163.5475 C.ar    1  UNL1        0.0063
      7 N         142.7125  137.9887  158.9752 N.ar    1  UNL1       -0.1495
      8 N         143.7158  139.1032  158.9366 N.ar    1  UNL1       -0.0450
      9 N         144.0587  139.4673  160.3507 N.ar    1  UNL1       -0.1077
     10 C         143.2675  138.5778  161.2633 C.ar    1  UNL1        0.2058
     11 N         142.4355  137.6641  160.4132 N.ar    1  UNL1       -0.1297
     12 C         142.0947  137.3169  157.7848 C.3     1  UNL1        0.1670
     13 N         144.1196  137.4055  156.1594 N.3     1  UNL1       -0.3202
     14 C         142.9678  136.6554  156.7600 C.3     1  UNL1        0.0831
     15 H         144.6006  136.8082  155.4869 H       1  UNL1        0.1189
     16 H         144.7690  137.6788  156.8969 H       1  UNL1        0.1189
     17 C         142.6890  135.2439  156.3358 C.3     1  UNL1        0.0593
     18 C         143.0141  134.1058  157.2573 C.2     1  UNL1        0.0517
     19 O         142.5768  132.7131  156.9122 O.co2   1  UNL1       -0.5491
     20 O         143.7764  134.3604  158.5237 O.co2   1  UNL1       -0.5491
     21 O         143.4061  138.6608  167.2612 O.3     1  UNL1       -0.4344
     22 C         142.4632  139.5459  168.0210 C.ar    1  UNL1        0.2578
     23 N         141.8340  140.7276  167.3444 N.ar    1  UNL1       -0.2070
     24 C         140.8910  141.6127  168.1043 C.ar    1  UNL1        0.1135
     25 C         140.5773  141.3162  169.5408 C.ar    1  UNL1        0.0793
     26 CL        139.6343  142.2013  170.3006 Cl      1  UNL1       -0.0805
     27 C         141.2065  140.1346  170.2175 C.ar    1  UNL1        0.0474
     28 C         142.1494  139.2495  169.4576 C.ar    1  UNL1        0.1942
     29 F         142.7786  138.0678  170.1343 F       1  UNL1       -0.1992
@<TRIPOS>UNITY_ATOM_ATTR
19 1
charge -1
@<TRIPOS>BOND
     1    14    13    1
     2    14    17    1
     3    17    18    1
     4    18    19   ar
     5    18    20   ar
     6    14    12    1
     7    12     7    1
     8     7     8   ar
     9     8     9   ar
    10     9    10   ar
    11    10     1    1
    12     1     2   ar
    13     2     3   ar
    14     3     4   ar
    15     4    21    1
    16    21    22    1
    17    22    23   ar
    18    23    24   ar
    19    24    25   ar
    20    25    26    1
    21    25    27   ar
    22    27    28   ar
    23    28    29    1
    24     4     5   ar
    25     5     6   ar
    26    10    11   ar
    27    11     7   ar
    28     6     1   ar
    29    28    22   ar
    30    13    15    1
    31    13    16    1
@<TRIPOS>MOLECULE
*****
 29 31 0 0 0
SMALL
GASTEIGER

@<TRIPOS>ATOM
      1 C         138.3948  139.3093  164.0683 C.ar    1  UNL1        0.0395
      2 C         137.8795  140.5202  163.3486 C.ar    1  UNL1        0.0063
      3 C         137.8439  140.5429  161.8492 C.ar    1  UNL1        0.0377
      4 C         138.3236  139.3547  161.0695 C.ar    1  UNL1        0.1473
      5 C         138.8390  138.1437  161.7892 C.ar    1  UNL1        0.0377
      6 C         138.8745  138.1210  163.2886 C.ar    1  UNL1        0.0063
      7 N         139.0318  139.7650  167.8699 N.ar    1  UNL1       -0.1495
      8 N         137.9385  138.7380  167.8803 N.ar    1  UNL1       -0.0450
      9 N         137.5669  138.4423  166.4575 N.ar    1  UNL1       -0.1077
     10 C         138.4304  139.2865  165.5677 C.ar    1  UNL1        0.2058
     11 N         139.3358  140.1040  166.4407 N.ar    1  UNL1       -0.1297
     12 C         139.7032  140.3503  169.0769 C.3     1  UNL1        0.1670
     13 N         142.1562  140.1466  168.2456 N.3     1  UNL1       -0.3202
     14 C         141.0878  140.9160  168.9644 C.3     1  UNL1        0.0831
     15 H         143.0280  140.6757  168.2655 H       1  UNL1        0.1189
     16 H         141.8728  139.9945  167.2777 H       1  UNL1        0.1189
     17 C         141.4042  142.2510  169.5708 C.3     1  UNL1        0.0593
     18 C         140.5947  142.7607  170.7262 C.2     1  UNL1        0.0517
     19 O         140.6439  142.0517  172.0471 O.co2   1  UNL1       -0.5491
     20 O         139.7360  143.9793  170.5606 O.co2   1  UNL1       -0.5491
     21 O         138.2880  139.3774  159.5701 O.3     1  UNL1       -0.4344
     22 C         139.5172  139.0267  158.7853 C.ar    1  UNL1        0.2578
     23 N         139.4624  137.9419  157.7508 N.ar    1  UNL1       -0.2070
     24 C         140.6918  137.5912  156.9660 C.ar    1  UNL1        0.1135
     25 C         141.9758  138.3252  157.2157 C.ar    1  UNL1        0.0793
     26 CL        143.2050  137.9745  156.4309 Cl      1  UNL1       -0.0805
     27 C         142.0306  139.4100  158.2502 C.ar    1  UNL1        0.0474
     28 C         140.8014  139.7608  159.0350 C.ar    1  UNL1        0.1942
     29 F         140.8562  140.8456  160.0695 F       1  UNL1       -0.1992
@<TRIPOS>UNITY_ATOM_ATTR
19 1
charge -1
@<TRIPOS>BOND
     1    14    13    1
     2    14    17    1
     3    17    18    1
     4    18    19   ar
     5    18    20   ar
     6    14    12    1
     7    12     7    1
     8     7     8   ar
     9     8     9   ar
    10     9    10   ar
    11    10     1    1
    12     1     2   ar
    13     2     3   ar
    14     3     4   ar
    15     4    21    1
    16    21    22    1
    17    22    23   ar
    18    23    24   ar
    19    24    25   ar
    20    25    26    1
    21    25    27   ar
    22    27    28   ar
    23    28    29    1
    24     4     5   ar
    25     5     6   ar
    26    10    11   ar
    27    11     7   ar
    28     6     1   ar
    29    28    22   ar
    30    13    15    1
    31    13    16    1
@<TRIPOS>MOLECULE
*****
 29 31 0 0 0
SMALL
GASTEIGER

@<TRIPOS>ATOM
      1 C         138.6094  139.1070  164.1809 C.ar    1  UNL1        0.0395
      2 C         139.3728  138.0098  163.5002 C.ar    1  UNL1        0.0063
      3 C         139.3815  137.9195  162.0030 C.ar    1  UNL1        0.0377
      4 C         138.6269  138.9264  161.1865 C.ar    1  UNL1        0.1473
      5 C         137.8635  140.0236  161.8672 C.ar    1  UNL1        0.0377
      6 C         137.8548  140.1139  163.3644 C.ar    1  UNL1        0.0063
      7 N         139.1966  139.7730  167.9594 N.ar    1  UNL1       -0.1495
      8 N         137.9778  138.8997  168.0050 N.ar    1  UNL1       -0.0450
      9 N         137.6095  138.5440  166.5951 N.ar    1  UNL1       -0.1077
     10 C         138.6007  139.1974  165.6782 C.ar    1  UNL1        0.2058
     11 N         139.5815  139.9569  166.5214 N.ar    1  UNL1       -0.1297
     12 C         139.9059  140.3594  169.1440 C.3     1  UNL1        0.1670
     13 N         142.1841  139.5739  168.1731 N.3     1  UNL1       -0.3202
     14 C         141.3931  140.2149  169.2747 C.3     1  UNL1        0.0831
     15 H         143.1716  139.5589  168.4279 H       1  UNL1        0.1189
     16 H         142.0631  140.1080  167.3125 H       1  UNL1        0.1189
     17 C         142.0895  140.7114  170.5071 C.3     1  UNL1        0.0593
     18 C         141.6937  142.0245  171.1146 C.2     1  UNL1        0.0517
     19 O         142.4343  143.2754  170.7448 O.co2   1  UNL1       -0.5491
     20 O         140.5576  142.0866  172.0918 O.co2   1  UNL1       -0.5491
     21 O         138.6356  138.8360  159.6892 O.3     1  UNL1       -0.4344
     22 C         138.6609  140.0873  158.8624 C.ar    1  UNL1        0.2578
     23 N         137.4798  140.4475  158.0107 N.ar    1  UNL1       -0.2070
     24 C         137.5051  141.6989  157.1839 C.ar    1  UNL1        0.1135
     25 C         138.7114  142.5900  157.2089 C.ar    1  UNL1        0.0793
     26 CL        138.7367  143.8413  156.3822 Cl      1  UNL1       -0.0805
     27 C         139.8925  142.2298  158.0606 C.ar    1  UNL1        0.0474
     28 C         139.8672  140.9785  158.8873 C.ar    1  UNL1        0.1942
     29 F         141.0483  140.6183  159.7390 F       1  UNL1       -0.1992
@<TRIPOS>UNITY_ATOM_ATTR
19 1
charge -1
@<TRIPOS>BOND
     1    14    13    1
     2    14    17    1
     3    17    18    1
     4    18    19   ar
     5    18    20   ar
     6    14    12    1
     7    12     7    1
     8     7     8   ar
     9     8     9   ar
    10     9    10   ar
    11    10     1    1
    12     1     2   ar
    13     2     3   ar
    14     3     4   ar
    15     4    21    1
    16    21    22    1
    17    22    23   ar
    18    23    24   ar
    19    24    25   ar
    20    25    26    1
    21    25    27   ar
    22    27    28   ar
    23    28    29    1
    24     4     5   ar
    25     5     6   ar
    26    10    11   ar
    27    11     7   ar
    28     6     1   ar
    29    28    22   ar
    30    13    15    1
    31    13    16    1
@<TRIPOS>MOLECULE
*****
 29 31 0 0 0
SMALL
GASTEIGER

@<TRIPOS>ATOM
      1 C         138.8918  139.0140  164.9412 C.ar    1  UNL1        0.0395
      2 C         139.6758  137.8218  164.4785 C.ar    1  UNL1        0.0063
      3 C         139.7086  137.4651  163.0220 C.ar    1  UNL1        0.0377
      4 C         138.9574  138.3005  162.0281 C.ar    1  UNL1        0.1473
      5 C         138.1735  139.4927  162.4908 C.ar    1  UNL1        0.0377
      6 C         138.1407  139.8494  163.9473 C.ar    1  UNL1        0.0063
      7 N         139.3376  140.4386  168.5242 N.ar    1  UNL1       -0.1495
      8 N         138.2792  139.4009  168.7545 N.ar    1  UNL1       -0.0450
      9 N         137.9834  138.7410  167.4403 N.ar    1  UNL1       -0.1077
     10 C         138.8590  139.3708  166.3979 C.ar    1  UNL1        0.2058
     11 N         139.6959  140.4199  167.0677 N.ar    1  UNL1       -0.1297
     12 C         139.9332  141.3371  169.5672 C.3     1  UNL1        0.1670
     13 N         140.0551  139.5617  171.4600 N.3     1  UNL1       -0.3202
     14 C         140.6407  140.7465  170.7506 C.3     1  UNL1        0.0831
     15 H         140.6629  139.2944  172.2343 H       1  UNL1        0.1189
     16 H         139.9722  138.7817  170.8080 H       1  UNL1        0.1189
     17 C         141.9340  141.3406  171.2246 C.3     1  UNL1        0.0593
     18 C         142.6726  142.3174  170.3585 C.2     1  UNL1        0.0517
     19 O         143.3608  141.8439  169.1126 O.co2   1  UNL1       -0.5491
     20 O         142.7231  143.7676  170.7381 O.co2   1  UNL1       -0.5491
     21 O         138.9903  137.9437  160.5715 O.3     1  UNL1       -0.4344
     22 C         139.6841  138.8454  159.5939 C.ar    1  UNL1        0.2578
     23 N         141.1431  138.6545  159.3025 N.ar    1  UNL1       -0.2070
     24 C         141.8369  139.5562  158.3249 C.ar    1  UNL1        0.1135
     25 C         141.0717  140.6487  157.6387 C.ar    1  UNL1        0.0793
     26 CL        141.7656  141.5503  156.6612 Cl      1  UNL1       -0.0805
     27 C         139.6127  140.8395  157.9301 C.ar    1  UNL1        0.0474
     28 C         138.9189  139.9379  158.9077 C.ar    1  UNL1        0.1942
     29 F         137.4599  140.1288  159.1990 F       1  UNL1       -0.1992
@<TRIPOS>UNITY_ATOM_ATTR
19 1
charge -1
@<TRIPOS>BOND
     1    14    13    1
     2    14    17    1
     3    17    18    1
     4    18    19   ar
     5    18    20   ar
     6    14    12    1
     7    12     7    1
     8     7     8   ar
     9     8     9   ar
    10     9    10   ar
    11    10     1    1
    12     1     2   ar
    13     2     3   ar
    14     3     4   ar
    15     4    21    1
    16    21    22    1
    17    22    23   ar
    18    23    24   ar
    19    24    25   ar
    20    25    26    1
    21    25    27   ar
    22    27    28   ar
    23    28    29    1
    24     4     5   ar
    25     5     6   ar
    26    10    11   ar
    27    11     7   ar
    28     6     1   ar
    29    28    22   ar
    30    13    15    1
    31    13    16    1
@<TRIPOS>MOLECULE
*****
 29 31 0 0 0
SMALL
GASTEIGER

@<TRIPOS>ATOM
      1 C         140.8776  144.9976  160.3983 C.ar    1  UNL1        0.0395
      2 C         140.0439  145.8693  161.2900 C.ar    1  UNL1        0.0063
      3 C         139.8144  145.4779  162.7196 C.ar    1  UNL1        0.0377
      4 C         140.4186  144.2148  163.2577 C.ar    1  UNL1        0.1473
      5 C         141.2523  143.3431  162.3660 C.ar    1  UNL1        0.0377
      6 C         141.4818  143.7345  160.9363 C.ar    1  UNL1        0.0063
      7 N         140.7588  146.2531  156.7274 N.ar    1  UNL1       -0.1495
      8 N         142.1621  145.7296  156.8094 N.ar    1  UNL1       -0.0450
      9 N         142.3774  145.1957  158.1945 N.ar    1  UNL1       -0.1077
     10 C         141.1071  145.3891  158.9685 C.ar    1  UNL1        0.2058
     11 N         140.1068  146.0426  158.0618 N.ar    1  UNL1       -0.1297
     12 C         140.1196  146.8774  155.5225 C.3     1  UNL1        0.1670
     13 N         138.5258  148.4579  156.8308 N.3     1  UNL1       -0.3202
     14 C         139.4083  148.1921  155.6474 C.3     1  UNL1        0.0831
     15 H         138.1258  149.3931  156.7534 H       1  UNL1        0.1189
     16 H         139.0765  148.3935  157.6869 H       1  UNL1        0.1189
     17 C         139.5796  149.2410  154.5888 C.3     1  UNL1        0.0593
     18 C         139.4444  150.6924  154.9423 C.2     1  UNL1        0.0517
     19 O         140.6393  151.5963  154.8703 O.co2   1  UNL1       -0.5491
     20 O         138.1143  151.2400  155.3677 O.co2   1  UNL1       -0.5491
     21 O         140.1890  143.8233  164.6875 O.3     1  UNL1       -0.4344
     22 C         139.7316  142.4342  165.0206 C.ar    1  UNL1        0.2578
     23 N         140.5994  141.5384  165.8539 N.ar    1  UNL1       -0.2070
     24 C         140.1419  140.1492  166.1870 C.ar    1  UNL1        0.1135
     25 C         138.8166  139.6559  165.6868 C.ar    1  UNL1        0.0793
     26 CL        138.3592  138.2667  166.0199 Cl      1  UNL1       -0.0805
     27 C         137.9488  140.5516  164.8534 C.ar    1  UNL1        0.0474
     28 C         138.4063  141.9408  164.5203 C.ar    1  UNL1        0.1942
     29 F         137.5385  142.8366  163.6870 F       1  UNL1       -0.1992
@<TRIPOS>UNITY_ATOM_ATTR
19 1
charge -1
@<TRIPOS>BOND
     1    14    13    1
     2    14    17    1
     3    17    18    1
     4    18    19   ar
     5    18    20   ar
     6    14    12    1
     7    12     7    1
     8     7     8   ar
     9     8     9   ar
    10     9    10   ar
    11    10     1    1
    12     1     2   ar
    13     2     3   ar
    14     3     4   ar
    15     4    21    1
    16    21    22    1
    17    22    23   ar
    18    23    24   ar
    19    24    25   ar
    20    25    26    1
    21    25    27   ar
    22    27    28   ar
    23    28    29    1
    24     4     5   ar
    25     5     6   ar
    26    10    11   ar
    27    11     7   ar
    28     6     1   ar
    29    28    22   ar
    30    13    15    1
    31    13    16    1
@<TRIPOS>MOLECULE
*****
 29 31 0 0 0
SMALL
GASTEIGER

@<TRIPOS>ATOM
      1 C         138.3556  139.4988  163.7655 C.ar    1  UNL1        0.0395
      2 C         138.7877  138.3207  162.9438 C.ar    1  UNL1        0.0063
      3 C         138.6548  138.3590  161.4502 C.ar    1  UNL1        0.0377
      4 C         138.0899  139.5753  160.7784 C.ar    1  UNL1        0.1473
      5 C         137.6578  140.7534  161.6002 C.ar    1  UNL1        0.0377
      6 C         137.7906  140.7152  163.0937 C.ar    1  UNL1        0.0063
      7 N         139.2251  139.9290  167.5238 N.ar    1  UNL1       -0.1495
      8 N         138.1604  138.8745  167.5915 N.ar    1  UNL1       -0.0450
      9 N         137.7051  138.5851  166.1919 N.ar    1  UNL1       -0.1077
     10 C         138.4884  139.4606  165.2592 C.ar    1  UNL1        0.2058
     11 N         139.4278  140.2912  166.0824 N.ar    1  UNL1       -0.1297
     12 C         139.9584  140.5179  168.6924 C.3     1  UNL1        0.1670
     13 N         138.3272  139.7509  170.5634 N.3     1  UNL1       -0.3202
     14 C         139.2289  140.7944  169.9735 C.3     1  UNL1        0.0831
     15 H         137.9165  140.1054  171.4272 H       1  UNL1        0.1189
     16 H         138.8671  138.9091  170.7641 H       1  UNL1        0.1189
     17 C         139.4010  142.1145  170.6647 C.3     1  UNL1        0.0593
     18 C         140.4407  143.0829  170.1839 C.2     1  UNL1        0.0517
     19 O         140.0635  144.1741  169.2262 O.co2   1  UNL1       -0.5491
     20 O         141.8576  142.9602  170.6607 O.co2   1  UNL1       -0.5491
     21 O         137.9570  139.6136  159.2847 O.3     1  UNL1       -0.4344
     22 C         138.3305  140.8549  158.5301 C.ar    1  UNL1        0.2578
     23 N         139.6329  141.5425  158.8148 N.ar    1  UNL1       -0.2070
     24 C         140.0063  142.7839  158.0601 C.ar    1  UNL1        0.1135
     25 C         139.0774  143.3376  157.0207 C.ar    1  UNL1        0.0793
     26 CL        139.4509  144.5790  156.2660 Cl      1  UNL1       -0.0805
     27 C         137.7751  142.6501  156.7359 C.ar    1  UNL1        0.0474
     28 C         137.4016  141.4088  157.4906 C.ar    1  UNL1        0.1942
     29 F         136.0992  140.7212  157.2058 F       1  UNL1       -0.1992
@<TRIPOS>UNITY_ATOM_ATTR
19 1
charge -1
@<TRIPOS>BOND
     1    14    13    1
     2    14    17    1
     3    17    18    1
     4    18    19   ar
     5    18    20   ar
     6    14    12    1
     7    12     7    1
     8     7     8   ar
     9     8     9   ar
    10     9    10   ar
    11    10     1    1
    12     1     2   ar
    13     2     3   ar
    14     3     4   ar
    15     4    21    1
    16    21    22    1
    17    22    23   ar
    18    23    24   ar
    19    24    25   ar
    20    25    26    1
    21    25    27   ar
    22    27    28   ar
    23    28    29    1
    24     4     5   ar
    25     5     6   ar
    26    10    11   ar
    27    11     7   ar
    28     6     1   ar
    29    28    22   ar
    30    13    15    1
    31    13    16    1
@<TRIPOS>MOLECULE
*****
 29 31 0 0 0
SMALL
GASTEIGER

@<TRIPOS>ATOM
      1 C         139.0717  138.8797  164.2752 C.ar    1  UNL1        0.0395
      2 C         138.1795  139.5845  163.2969 C.ar    1  UNL1        0.0063
      3 C         138.3622  139.3674  161.8240 C.ar    1  UNL1        0.0377
      4 C         139.4372  138.4455  161.3294 C.ar    1  UNL1        0.1473
      5 C         140.3294  137.7407  162.3078 C.ar    1  UNL1        0.0377
      6 C         140.1466  137.9578  163.7806 C.ar    1  UNL1        0.0063
      7 N         139.1884  139.9057  168.0168 N.ar    1  UNL1       -0.1495
      8 N         138.0272  138.9560  168.0127 N.ar    1  UNL1       -0.0450
      9 N         137.8423  138.4561  166.6106 N.ar    1  UNL1       -0.1077
     10 C         138.8890  139.0968  165.7482 C.ar    1  UNL1        0.2058
     11 N         139.7209  139.9927  166.6172 N.ar    1  UNL1       -0.1297
     12 C         139.7230  140.6395  169.2108 C.3     1  UNL1        0.1670
     13 N         139.8012  139.2713  171.4180 N.3     1  UNL1       -0.3202
     14 C         140.5078  139.9020  170.2549 C.3     1  UNL1        0.0831
     15 H         140.4835  138.8158  172.0241 H       1  UNL1        0.1189
     16 H         139.1345  138.5792  171.0762 H       1  UNL1        0.1189
     17 C         141.9993  139.7951  170.1358 C.3     1  UNL1        0.0593
     18 C         142.6643  140.0250  168.8111 C.2     1  UNL1        0.0517
     19 O         143.1086  138.8565  167.9821 O.co2   1  UNL1       -0.5491
     20 O         142.8850  141.4233  168.3153 O.co2   1  UNL1       -0.5491
     21 O         139.6199  138.2284  159.8565 O.3     1  UNL1       -0.4344
     22 C         140.8334  138.7727  159.1630 C.ar    1  UNL1        0.2578
     23 N         141.6408  139.8604  159.8072 N.ar    1  UNL1       -0.2070
     24 C         142.8544  140.4047  159.1137 C.ar    1  UNL1        0.1135
     25 C         143.2606  139.8612  157.7760 C.ar    1  UNL1        0.0793
     26 CL        144.4742  140.4055  157.0825 Cl      1  UNL1       -0.0805
     27 C         142.4533  138.7735  157.1317 C.ar    1  UNL1        0.0474
     28 C         141.2397  138.2292  157.8252 C.ar    1  UNL1        0.1942
     29 F         140.4324  137.1415  157.1809 F       1  UNL1       -0.1992
@<TRIPOS>UNITY_ATOM_ATTR
19 1
charge -1
@<TRIPOS>BOND
     1    14    13    1
     2    14    17    1
     3    17    18    1
     4    18    19   ar
     5    18    20   ar
     6    14    12    1
     7    12     7    1
     8     7     8   ar
     9     8     9   ar
    10     9    10   ar
    11    10     1    1
    12     1     2   ar
    13     2     3   ar
    14     3     4   ar
    15     4    21    1
    16    21    22    1
    17    22    23   ar
    18    23    24   ar
    19    24    25   ar
    20    25    26    1
    21    25    27   ar
    22    27    28   ar
    23    28    29    1
    24     4     5   ar
    25     5     6   ar
    26    10    11   ar
    27    11     7   ar
    28     6     1   ar
    29    28    22   ar
    30    13    15    1
    31    13    16    1
@<TRIPOS>MOLECULE
*****
 29 31 0 0 0
SMALL
GASTEIGER

@<TRIPOS>ATOM
      1 C         143.2102  138.6023  162.7757 C.ar    1  UNL1        0.0395
      2 C         144.3786  139.2434  163.4639 C.ar    1  UNL1        0.0063
      3 C         144.4432  139.2721  164.9622 C.ar    1  UNL1        0.0377
      4 C         143.3393  138.6598  165.7723 C.ar    1  UNL1        0.1473
      5 C         142.1708  138.0187  165.0842 C.ar    1  UNL1        0.0377
      6 C         142.1062  137.9900  163.5859 C.ar    1  UNL1        0.0063
      7 N         142.3593  138.2303  159.0070 N.ar    1  UNL1       -0.1495
      8 N         143.7332  138.8283  158.9363 N.ar    1  UNL1       -0.0450
      9 N         144.2191  139.0404  160.3394 N.ar    1  UNL1       -0.1077
     10 C         143.1455  138.5735  161.2773 C.ar    1  UNL1        0.2058
     11 N         141.9961  138.0729  160.4538 N.ar    1  UNL1       -0.1297
     12 C         141.4995  137.8556  157.8364 C.3     1  UNL1        0.1670
     13 N         139.3803  138.9491  158.8674 N.3     1  UNL1       -0.3202
     14 C         140.1489  138.4855  157.6657 C.3     1  UNL1        0.0831
     15 H         138.4907  139.3489  158.5687 H       1  UNL1        0.1189
     16 H         139.9211  139.6567  159.3647 H       1  UNL1        0.1189
     17 C         139.5669  138.6517  156.2932 C.3     1  UNL1        0.0593
     18 C         139.0880  137.4516  155.5313 C.2     1  UNL1        0.0517
     19 O         140.0708  136.4211  155.0601 O.co2   1  UNL1       -0.5491
     20 O         137.6263  137.2821  155.2405 O.co2   1  UNL1       -0.5491
     21 O         143.4039  138.6885  167.2707 O.3     1  UNL1       -0.4344
     22 C         142.4747  139.5761  168.0446 C.ar    1  UNL1        0.2578
     23 N         141.8889  140.7954  167.3964 N.ar    1  UNL1       -0.2070
     24 C         140.9597  141.6830  168.1704 C.ar    1  UNL1        0.1135
     25 C         140.6165  141.3513  169.5923 C.ar    1  UNL1        0.0793
     26 CL        139.6873  142.2389  170.3662 Cl      1  UNL1       -0.0805
     27 C         141.2023  140.1320  170.2405 C.ar    1  UNL1        0.0474
     28 C         142.1314  139.2444  169.4666 C.ar    1  UNL1        0.1942
     29 F         142.7173  138.0251  170.1148 F       1  UNL1       -0.1992
@<TRIPOS>UNITY_ATOM_ATTR
19 1
charge -1
@<TRIPOS>BOND
     1    14    13    1
     2    14    17    1
     3    17    18    1
     4    18    19   ar
     5    18    20   ar
     6    14    12    1
     7    12     7    1
     8     7     8   ar
     9     8     9   ar
    10     9    10   ar
    11    10     1    1
    12     1     2   ar
    13     2     3   ar
    14     3     4   ar
    15     4    21    1
    16    21    22    1
    17    22    23   ar
    18    23    24   ar
    19    24    25   ar
    20    25    26    1
    21    25    27   ar
    22    27    28   ar
    23    28    29    1
    24     4     5   ar
    25     5     6   ar
    26    10    11   ar
    27    11     7   ar
    28     6     1   ar
    29    28    22   ar
    30    13    15    1
    31    13    16    1
@<TRIPOS>MOLECULE
*****
 29 31 0 0 0
SMALL
GASTEIGER

@<TRIPOS>ATOM
      1 C         143.4049  138.7991  162.8128 C.ar    1  UNL1        0.0395
      2 C         142.2756  138.1168  163.5263 C.ar    1  UNL1        0.0063
      3 C         142.2660  138.0510  165.0248 C.ar    1  UNL1        0.0377
      4 C         143.3858  138.6673  165.8098 C.ar    1  UNL1        0.1473
      5 C         144.5151  139.3496  165.0962 C.ar    1  UNL1        0.0377
      6 C         144.5246  139.4154  163.5977 C.ar    1  UNL1        0.0063
      7 N         143.6760  139.6738  159.0409 N.ar    1  UNL1       -0.1495
      8 N         143.1824  138.2588  158.9755 N.ar    1  UNL1       -0.0450
      9 N         143.0207  137.7589  160.3805 N.ar    1  UNL1       -0.1077
     10 C         143.4145  138.8649  161.3142 C.ar    1  UNL1        0.2058
     11 N         143.8194  140.0484  160.4863 N.ar    1  UNL1       -0.1297
     12 C         143.9739  140.5588  157.8670 C.3     1  UNL1        0.1670
     13 N         145.3592  142.7534  157.9846 N.3     1  UNL1       -0.3202
     14 C         144.0377  142.0466  158.0464 C.3     1  UNL1        0.0831
     15 H         145.2169  143.7535  158.1264 H       1  UNL1        0.1189
     16 H         145.7862  142.5968  157.0716 H       1  UNL1        0.1189
     17 C         142.7799  142.8276  158.2877 C.3     1  UNL1        0.0593
     18 C         142.6995  143.7819  159.4422 C.2     1  UNL1        0.0517
     19 O         143.4863  143.5160  160.6913 O.co2   1  UNL1       -0.5491
     20 O         141.8324  145.0021  159.3475 O.co2   1  UNL1       -0.5491
     21 O         143.3762  138.6014  167.3083 O.3     1  UNL1       -0.4344
     22 C         142.4955  139.5271  168.0941 C.ar    1  UNL1        0.2578
     23 N         141.9176  140.7473  167.4407 N.ar    1  UNL1       -0.2070
     24 C         141.0368  141.6730  168.2266 C.ar    1  UNL1        0.1135
     25 C         140.7340  141.3783  169.6658 C.ar    1  UNL1        0.0793
     26 CL        139.8533  142.3039  170.4516 Cl      1  UNL1       -0.0805
     27 C         141.3119  140.1580  170.3193 C.ar    1  UNL1        0.0474
     28 C         142.1927  139.2324  169.5334 C.ar    1  UNL1        0.1942
     29 F         142.7706  138.0122  170.1869 F       1  UNL1       -0.1992
@<TRIPOS>UNITY_ATOM_ATTR
19 1
charge -1
@<TRIPOS>BOND
     1    14    13    1
     2    14    17    1
     3    17    18    1
     4    18    19   ar
     5    18    20   ar
     6    14    12    1
     7    12     7    1
     8     7     8   ar
     9     8     9   ar
    10     9    10   ar
    11    10     1    1
    12     1     2   ar
    13     2     3   ar
    14     3     4   ar
    15     4    21    1
    16    21    22    1
    17    22    23   ar
    18    23    24   ar
    19    24    25   ar
    20    25    26    1
    21    25    27   ar
    22    27    28   ar
    23    28    29    1
    24     4     5   ar
    25     5     6   ar
    26    10    11   ar
    27    11     7   ar
    28     6     1   ar
    29    28    22   ar
    30    13    15    1
    31    13    16    1
