@<TRIPOS>MOLECULE
*****
 40 45 0 0 0
SMALL
GASTEIGER

@<TRIPOS>ATOM
      1 C         142.7986  135.7670  157.6586 C.ar    1  UNL1        0.2400
      2 N         142.2664  135.3405  156.3226 N.ar    1  UNL1       -0.2090
      3 C         141.5811  136.3370  155.4354 C.ar    1  UNL1        0.1021
      4 C         141.2610  137.8384  155.5791 C.ar    1  UNL1        0.0207
      5 C         141.9798  137.2671  156.7653 C.ar    1  UNL1        0.0221
      6 C         142.6454  137.1902  158.1073 C.ar    1  UNL1        0.1178
      7 N         143.1776  137.6167  159.4433 N.pl3   1  UNL1       -0.2104
      8 S         143.5122  138.4953  160.6120 S.O2    1  UNL1        0.0737
      9 O         144.2050  138.2496  161.9196 O.2     1  UNL1       -0.1499
     10 O         143.9645  137.0759  160.7872 O.2     1  UNL1       -0.1499
     11 C         143.6087  139.7201  161.4727 C.ar    1  UNL1        0.1253
     12 C         144.2744  139.6431  162.8147 C.ar    1  UNL1        0.0202
     13 C         144.3709  140.8678  163.6753 C.ar    1  UNL1        0.0015
     14 C         143.8018  142.1695  163.1940 C.ar    1  UNL1        0.0046
     15 C         143.1362  142.2465  161.8520 C.ar    1  UNL1        0.0547
     16 C         143.0396  141.0218  160.9914 C.ar    1  UNL1        0.0247
     17 C         142.5022  143.8947  161.4227 C.2     1  UNL1        0.2461
     18 O         142.8368  144.7734  162.5915 O.2     1  UNL1       -0.2701
     19 N         141.8169  144.8912  160.5354 N.am    1  UNL1       -0.2969
     20 C         141.0981  145.4625  159.3492 C.3     1  UNL1        0.1166
     21 C         140.4325  145.5394  158.0072 C.ar    1  UNL1       -0.0026
     22 C         139.7588  146.6837  157.2237 C.ar    1  UNL1       -0.0026
     23 C         139.0932  146.7606  155.8817 C.ar    1  UNL1       -0.0003
     24 C         138.9966  145.5359  155.0211 C.ar    1  UNL1       -0.0000
     25 C         139.5657  144.2342  155.5024 C.ar    1  UNL1       -0.0002
     26 C         139.9003  145.1129  156.6712 C.ar    1  UNL1       -0.0026
     27 C         139.4692  143.0095  154.6418 C.ar    1  UNL1        0.0030
     28 C         138.7839  144.0061  153.7545 C.ar    1  UNL1        0.0207
     29 C         138.2517  143.5795  152.4185 C.ar    1  UNL1        0.0988
     30 N         138.4048  142.1564  151.9698 N.ar    1  UNL1       -0.2438
     31 C         139.0901  141.1598  152.8572 C.ar    1  UNL1        0.0813
     32 C         139.3457  139.5366  152.5136 C.ar    1  UNL1        0.0191
     33 C         140.0182  138.4840  153.3442 C.ar    1  UNL1        0.0016
     34 C         140.5757  138.8349  154.6919 C.ar    1  UNL1        0.0016
     35 C         140.0066  140.1366  154.2105 C.ar    1  UNL1        0.0015
     36 C         139.6223  141.5864  154.1931 C.ar    1  UNL1        0.0177
     37 H         143.5512  136.7624  159.7592 H       1  UNL1        0.1739
     38 H         141.8803  145.6950  161.1002 H       1  UNL1        0.1501
     39 C         144.0729  133.5228  157.9575 C.3     1  UNL1        0.2543
     40 O         143.4838  134.7705  158.5458 O.3     1  UNL1       -0.4553
@<TRIPOS>BOND
     1    39    40    1
     2    40     1    1
     3     1     2   ar
     4     2     3   ar
     5     3     4   ar
     6     4     5   ar
     7     5     6   ar
     8     6     7    1
     9     7     8    1
    10     8     9    2
    11     8    10    2
    12     8    11    1
    13    11    12   ar
    14    12    13   ar
    15    13    14   ar
    16    14    15   ar
    17    15    16   ar
    18    15    17    1
    19    17    18    2
    20    17    19   am
    21    19    20    1
    22    20    21    1
    23    21    22   ar
    24    22    23   ar
    25    23    24   ar
    26    24    25   ar
    27    25    26   ar
    28    25    27    1
    29    27    28   ar
    30    28    29   ar
    31    29    30   ar
    32    30    31   ar
    33    31    32   ar
    34    32    33   ar
    35    33    34   ar
    36    34    35   ar
    37    35    36   ar
    38     6     1   ar
    39    16    11   ar
    40    26    21   ar
    41    36    27   ar
    42    34     4    1
    43    36    31   ar
    44     7    37    1
    45    19    38    1
@<TRIPOS>MOLECULE
*****
 40 45 0 0 0
SMALL
GASTEIGER

@<TRIPOS>ATOM
      1 C         140.1968  145.6943  155.0353 C.ar    1  UNL1        0.2400
      2 N         139.8062  146.8129  155.9552 N.ar    1  UNL1       -0.2090
      3 C         139.8427  146.6096  157.4408 C.ar    1  UNL1        0.1021
      4 C         140.2214  145.4132  158.3367 C.ar    1  UNL1        0.0207
      5 C         140.3486  145.1223  156.8706 C.ar    1  UNL1        0.0221
      6 C         140.6241  144.3724  155.6011 C.ar    1  UNL1        0.1178
      7 N         141.0147  143.2539  154.6812 N.pl3   1  UNL1       -0.2104
      8 S         141.4734  141.9016  154.2219 S.O2    1  UNL1        0.0737
      9 O         141.7024  141.2972  152.8683 O.2     1  UNL1       -0.1499
     10 O         141.1834  142.8457  153.0929 O.2     1  UNL1       -0.1499
     11 C         141.9448  140.4787  154.2786 C.ar    1  UNL1        0.1253
     12 C         142.2203  139.7288  153.0091 C.ar    1  UNL1        0.0202
     13 C         142.6917  138.3059  153.0658 C.ar    1  UNL1        0.0015
     14 C         142.8876  137.6330  154.3920 C.ar    1  UNL1        0.0046
     15 C         142.6121  138.3829  155.6615 C.ar    1  UNL1        0.0547
     16 C         142.1407  139.8057  155.6048 C.ar    1  UNL1        0.0247
     17 C         142.8994  137.4225  157.1773 C.2     1  UNL1        0.2461
     18 O         143.3581  136.0702  156.7181 O.2     1  UNL1       -0.2701
     19 N         142.9360  137.2193  158.6631 N.am    1  UNL1       -0.2969
     20 C         142.8089  137.5101  160.1291 C.3     1  UNL1        0.1166
     21 C         142.5333  138.2601  161.3986 C.ar    1  UNL1       -0.0026
     22 C         142.6267  137.8851  162.8911 C.ar    1  UNL1       -0.0026
     23 C         142.3512  138.6351  164.1607 C.ar    1  UNL1       -0.0003
     24 C         141.8798  140.0579  164.1040 C.ar    1  UNL1       -0.0000
     25 C         141.6840  140.7309  162.7778 C.ar    1  UNL1       -0.0002
     26 C         142.1427  139.3786  162.3185 C.ar    1  UNL1       -0.0026
     27 C         141.2126  142.1537  162.7211 C.ar    1  UNL1        0.0030
     28 C         141.2491  141.9505  164.2069 C.ar    1  UNL1        0.0207
     29 C         140.8585  143.0691  165.1267 C.ar    1  UNL1        0.0988
     30 N         140.4313  144.3909  164.5609 N.ar    1  UNL1       -0.2438
     31 C         140.3947  144.5942  163.0751 C.ar    1  UNL1        0.0813
     32 C         139.9442  146.0008  162.2771 C.ar    1  UNL1        0.0191
     33 C         139.8823  146.2796  160.8046 C.ar    1  UNL1        0.0016
     34 C         140.2580  145.2099  159.8223 C.ar    1  UNL1        0.0016
     35 C         140.4538  144.5370  161.1485 C.ar    1  UNL1        0.0015
     36 C         140.7854  143.4756  162.1552 C.ar    1  UNL1        0.0177
     37 H         140.8862  143.6956  153.8108 H       1  UNL1        0.1739
     38 H         143.2454  136.2854  158.7003 H       1  UNL1        0.1501
     39 C         141.3009  146.5838  152.8581 C.3     1  UNL1        0.2543
     40 O         140.1603  145.8976  153.5496 O.3     1  UNL1       -0.4553
@<TRIPOS>BOND
     1    39    40    1
     2    40     1    1
     3     1     2   ar
     4     2     3   ar
     5     3     4   ar
     6     4     5   ar
     7     5     6   ar
     8     6     7    1
     9     7     8    1
    10     8     9    2
    11     8    10    2
    12     8    11    1
    13    11    12   ar
    14    12    13   ar
    15    13    14   ar
    16    14    15   ar
    17    15    16   ar
    18    15    17    1
    19    17    18    2
    20    17    19   am
    21    19    20    1
    22    20    21    1
    23    21    22   ar
    24    22    23   ar
    25    23    24   ar
    26    24    25   ar
    27    25    26   ar
    28    25    27    1
    29    27    28   ar
    30    28    29   ar
    31    29    30   ar
    32    30    31   ar
    33    31    32   ar
    34    32    33   ar
    35    33    34   ar
    36    34    35   ar
    37    35    36   ar
    38     6     1   ar
    39    16    11   ar
    40    26    21   ar
    41    36    27   ar
    42    34     4    1
    43    36    31   ar
    44     7    37    1
    45    19    38    1
@<TRIPOS>MOLECULE
*****
 40 45 0 0 0
SMALL
GASTEIGER

@<TRIPOS>ATOM
      1 C         142.8147  137.0588  155.5365 C.ar    1  UNL1        0.2400
      2 N         143.0749  136.0992  156.6596 N.ar    1  UNL1       -0.2090
      3 C         142.9162  136.5485  158.0819 C.ar    1  UNL1        0.1021
      4 C         142.5114  137.8875  158.7303 C.ar    1  UNL1        0.0207
      5 C         142.5264  137.9330  157.2310 C.ar    1  UNL1        0.0221
      6 C         142.3960  138.4678  155.8357 C.ar    1  UNL1        0.1178
      7 N         142.1358  139.4274  154.7125 N.pl3   1  UNL1       -0.2104
      8 S         141.7774  140.6962  153.9971 S.O2    1  UNL1        0.0737
      9 O         141.6945  141.0723  152.5474 O.2     1  UNL1       -0.1499
     10 O         142.1253  139.5693  153.0702 O.2     1  UNL1       -0.1499
     11 C         141.3638  142.1210  153.7756 C.ar    1  UNL1        0.1253
     12 C         141.2334  142.6558  152.3803 C.ar    1  UNL1        0.0202
     13 C         140.8198  144.0805  152.1588 C.ar    1  UNL1        0.0015
     14 C         140.5367  144.9704  153.3327 C.ar    1  UNL1        0.0046
     15 C         140.6671  144.4356  154.7280 C.ar    1  UNL1        0.0547
     16 C         141.0807  143.0109  154.9494 C.ar    1  UNL1        0.0247
     17 C         140.2885  145.6430  156.0324 C.2     1  UNL1        0.2461
     18 O         139.9300  146.9117  155.3170 O.2     1  UNL1       -0.2701
     19 N         140.1299  146.0922  157.4547 N.am    1  UNL1       -0.2969
     20 C         140.1148  146.0468  158.9539 C.3     1  UNL1        0.1166
     21 C         140.2453  145.5119  160.3493 C.ar    1  UNL1       -0.0026
     22 C         140.0368  146.1331  161.7449 C.ar    1  UNL1       -0.0026
     23 C         140.1672  145.5982  163.1402 C.ar    1  UNL1       -0.0003
     24 C         140.5808  144.1735  163.3617 C.ar    1  UNL1       -0.0000
     25 C         140.8639  143.2836  162.1879 C.ar    1  UNL1       -0.0002
     26 C         140.5054  144.5523  161.4724 C.ar    1  UNL1       -0.0026
     27 C         141.2774  141.8588  162.4093 C.ar    1  UNL1        0.0030
     28 C         141.1188  142.3081  163.8317 C.ar    1  UNL1        0.0207
     29 C         141.3790  141.3484  164.9548 C.ar    1  UNL1        0.0988
     30 N         141.7977  139.9395  164.6557 N.ar    1  UNL1       -0.2438
     31 C         141.9563  139.4902  163.2333 C.ar    1  UNL1        0.0813
     32 C         142.4151  137.9584  162.7221 C.ar    1  UNL1        0.0191
     33 C         142.5946  137.4362  161.3275 C.ar    1  UNL1        0.0016
     34 C         142.3528  138.3368  160.1525 C.ar    1  UNL1        0.0016
     35 C         142.0697  139.2267  161.3264 C.ar    1  UNL1        0.0015
     36 C         141.6962  140.4498  162.1101 C.ar    1  UNL1        0.0177
     37 H         142.3216  138.8434  153.9421 H       1  UNL1        0.1739
     38 H         139.8584  147.0273  157.3094 H       1  UNL1        0.1501
     39 C         141.8594  135.8723  153.4318 C.3     1  UNL1        0.2543
     40 O         142.9733  136.6095  154.1142 O.3     1  UNL1       -0.4553
@<TRIPOS>BOND
     1    39    40    1
     2    40     1    1
     3     1     2   ar
     4     2     3   ar
     5     3     4   ar
     6     4     5   ar
     7     5     6   ar
     8     6     7    1
     9     7     8    1
    10     8     9    2
    11     8    10    2
    12     8    11    1
    13    11    12   ar
    14    12    13   ar
    15    13    14   ar
    16    14    15   ar
    17    15    16   ar
    18    15    17    1
    19    17    18    2
    20    17    19   am
    21    19    20    1
    22    20    21    1
    23    21    22   ar
    24    22    23   ar
    25    23    24   ar
    26    24    25   ar
    27    25    26   ar
    28    25    27    1
    29    27    28   ar
    30    28    29   ar
    31    29    30   ar
    32    30    31   ar
    33    31    32   ar
    34    32    33   ar
    35    33    34   ar
    36    34    35   ar
    37    35    36   ar
    38     6     1   ar
    39    16    11   ar
    40    26    21   ar
    41    36    27   ar
    42    34     4    1
    43    36    31   ar
    44     7    37    1
    45    19    38    1
@<TRIPOS>MOLECULE
*****
 40 45 0 0 0
SMALL
GASTEIGER

@<TRIPOS>ATOM
      1 C         137.9968  143.7102  153.7713 C.ar    1  UNL1        0.2400
      2 N         137.9414  145.0166  154.5063 N.ar    1  UNL1       -0.2090
      3 C         138.5923  145.1486  155.8512 C.ar    1  UNL1        0.1021
      4 C         139.3804  144.1716  156.7465 C.ar    1  UNL1        0.0207
      5 C         138.9192  143.5576  155.4579 C.ar    1  UNL1        0.0221
      6 C         138.7032  142.5358  154.3813 C.ar    1  UNL1        0.1178
      7 N         138.7587  141.2295  153.6462 N.pl3   1  UNL1       -0.2104
      8 S         139.0788  139.7960  153.3416 S.O2    1  UNL1        0.0737
      9 O         138.7767  138.8986  152.1783 O.2     1  UNL1       -0.1499
     10 O         138.2932  140.4727  152.2576 O.2     1  UNL1       -0.1499
     11 C         139.6250  138.4084  153.5040 C.ar    1  UNL1        0.1253
     12 C         139.4090  137.3866  152.4273 C.ar    1  UNL1        0.0202
     13 C         139.9552  135.9991  152.5898 C.ar    1  UNL1        0.0015
     14 C         140.7173  135.6334  153.8289 C.ar    1  UNL1        0.0046
     15 C         140.9332  136.6552  154.9056 C.ar    1  UNL1        0.0547
     16 C         140.3871  138.0427  154.7431 C.ar    1  UNL1        0.0247
     17 C         141.8748  136.0489  156.3369 C.2     1  UNL1        0.2461
     18 O         142.1949  134.6155  156.0323 O.2     1  UNL1       -0.2701
     19 N         142.5257  136.1811  157.6819 N.am    1  UNL1       -0.2969
     20 C         142.9870  136.7950  158.9704 C.3     1  UNL1        0.1166
     21 C         143.2029  137.8169  160.0471 C.ar    1  UNL1       -0.0026
     22 C         143.9197  137.7816  161.4116 C.ar    1  UNL1       -0.0026
     23 C         144.1356  138.8034  162.4883 C.ar    1  UNL1       -0.0003
     24 C         143.5894  140.1909  162.3259 C.ar    1  UNL1       -0.0000
     25 C         142.8273  140.5567  161.0867 C.ar    1  UNL1       -0.0002
     26 C         143.1475  139.1233  160.7821 C.ar    1  UNL1       -0.0026
     27 C         142.2812  141.9442  160.9243 C.ar    1  UNL1        0.0030
     28 C         142.9321  142.0763  162.2693 C.ar    1  UNL1        0.0207
     29 C         142.8766  143.3828  163.0042 C.ar    1  UNL1        0.0988
     30 N         142.1703  144.5571  162.3944 N.ar    1  UNL1       -0.2438
     31 C         141.5194  144.4249  161.0494 C.ar    1  UNL1        0.0813
     32 C         140.6917  145.6308  160.2251 C.ar    1  UNL1        0.0191
     33 C         140.0181  145.5759  158.8860 C.ar    1  UNL1        0.0016
     34 C         140.0313  144.3037  158.0914 C.ar    1  UNL1        0.0016
     35 C         140.7934  143.9380  159.3305 C.ar    1  UNL1        0.0015
     36 C         141.5748  143.1185  160.3143 C.ar    1  UNL1        0.0177
     37 H         138.2585  141.4695  152.8330 H       1  UNL1        0.1739
     38 H         142.8842  135.2704  157.7885 H       1  UNL1        0.1501
     39 C         135.8503  143.5884  152.3127 C.3     1  UNL1        0.2543
     40 O         137.3459  143.5781  152.4264 O.3     1  UNL1       -0.4553
@<TRIPOS>BOND
     1    39    40    1
     2    40     1    1
     3     1     2   ar
     4     2     3   ar
     5     3     4   ar
     6     4     5   ar
     7     5     6   ar
     8     6     7    1
     9     7     8    1
    10     8     9    2
    11     8    10    2
    12     8    11    1
    13    11    12   ar
    14    12    13   ar
    15    13    14   ar
    16    14    15   ar
    17    15    16   ar
    18    15    17    1
    19    17    18    2
    20    17    19   am
    21    19    20    1
    22    20    21    1
    23    21    22   ar
    24    22    23   ar
    25    23    24   ar
    26    24    25   ar
    27    25    26   ar
    28    25    27    1
    29    27    28   ar
    30    28    29   ar
    31    29    30   ar
    32    30    31   ar
    33    31    32   ar
    34    32    33   ar
    35    33    34   ar
    36    34    35   ar
    37    35    36   ar
    38     6     1   ar
    39    16    11   ar
    40    26    21   ar
    41    36    27   ar
    42    34     4    1
    43    36    31   ar
    44     7    37    1
    45    19    38    1
@<TRIPOS>MOLECULE
*****
 40 45 0 0 0
SMALL
GASTEIGER

@<TRIPOS>ATOM
      1 C         139.7453  145.3813  162.2434 C.ar    1  UNL1        0.2400
      2 N         139.4258  146.6404  161.4934 N.ar    1  UNL1       -0.2090
      3 C         139.6158  146.6964  160.0066 C.ar    1  UNL1        0.1021
      4 C         140.1075  145.6737  158.9628 C.ar    1  UNL1        0.0207
      5 C         140.0927  145.1348  160.3627 C.ar    1  UNL1        0.0221
      6 C         140.2548  144.1782  161.5065 C.ar    1  UNL1        0.1178
      7 N         140.5742  142.9190  162.2565 N.pl3   1  UNL1       -0.2104
      8 S         141.0126  141.5093  162.5222 S.O2    1  UNL1        0.0737
      9 O         141.1169  140.6813  163.7686 O.2     1  UNL1       -0.1499
     10 O         140.5909  142.2437  163.7603 O.2     1  UNL1       -0.1499
     11 C         141.5169  140.1190  162.2715 C.ar    1  UNL1        0.1253
     12 C         141.6790  139.1623  163.4153 C.ar    1  UNL1        0.0202
     13 C         142.1832  137.7721  163.1646 C.ar    1  UNL1        0.0015
     14 C         142.5254  137.3385  161.7700 C.ar    1  UNL1        0.0046
     15 C         142.3633  138.2952  160.6261 C.ar    1  UNL1        0.0547
     16 C         141.8590  139.6854  160.8768 C.ar    1  UNL1        0.0247
     17 C         142.8216  137.6115  159.0058 C.2     1  UNL1        0.2461
     18 O         143.2599  136.2018  159.2715 O.2     1  UNL1       -0.2701
     19 N         143.0115  137.6676  157.5190 N.am    1  UNL1       -0.2969
     20 C         143.0264  138.2063  156.1192 C.3     1  UNL1        0.1166
     21 C         142.8643  139.1631  154.9753 C.ar    1  UNL1       -0.0026
     22 C         143.1151  139.0514  153.4582 C.ar    1  UNL1       -0.0026
     23 C         142.9529  140.0081  152.3143 C.ar    1  UNL1       -0.0003
     24 C         142.4486  141.3984  152.5650 C.ar    1  UNL1       -0.0000
     25 C         142.1065  141.8319  153.9597 C.ar    1  UNL1       -0.0002
     26 C         142.5448  140.4222  154.2253 C.ar    1  UNL1       -0.0026
     27 C         141.6022  143.2222  154.2104 C.ar    1  UNL1        0.0030
     28 C         141.7921  143.2782  152.7234 C.ar    1  UNL1        0.0207
     29 C         141.4726  144.5374  151.9735 C.ar    1  UNL1        0.0988
     30 N         140.9632  145.7405  152.7103 N.ar    1  UNL1       -0.2438
     31 C         140.7733  145.6844  154.1973 C.ar    1  UNL1        0.0813
     32 C         140.2155  146.9309  155.1738 C.ar    1  UNL1        0.0191
     33 C         140.0001  146.9514  156.6581 C.ar    1  UNL1        0.0016
     34 C         140.2974  145.7297  157.4760 C.ar    1  UNL1        0.0016
     35 C         140.6396  145.2961  156.0814 C.ar    1  UNL1        0.0015
     36 C         141.0927  144.4253  154.9473 C.ar    1  UNL1        0.0177
     37 H         140.3497  143.2036  163.1719 H       1  UNL1        0.1739
     38 H         143.3425  136.7551  157.3544 H       1  UNL1        0.1501
     39 C         138.3300  144.6796  164.3061 C.3     1  UNL1        0.2543
     40 O         139.5554  145.3253  163.7303 O.3     1  UNL1       -0.4553
@<TRIPOS>BOND
     1    39    40    1
     2    40     1    1
     3     1     2   ar
     4     2     3   ar
     5     3     4   ar
     6     4     5   ar
     7     5     6   ar
     8     6     7    1
     9     7     8    1
    10     8     9    2
    11     8    10    2
    12     8    11    1
    13    11    12   ar
    14    12    13   ar
    15    13    14   ar
    16    14    15   ar
    17    15    16   ar
    18    15    17    1
    19    17    18    2
    20    17    19   am
    21    19    20    1
    22    20    21    1
    23    21    22   ar
    24    22    23   ar
    25    23    24   ar
    26    24    25   ar
    27    25    26   ar
    28    25    27    1
    29    27    28   ar
    30    28    29   ar
    31    29    30   ar
    32    30    31   ar
    33    31    32   ar
    34    32    33   ar
    35    33    34   ar
    36    34    35   ar
    37    35    36   ar
    38     6     1   ar
    39    16    11   ar
    40    26    21   ar
    41    36    27   ar
    42    34     4    1
    43    36    31   ar
    44     7    37    1
    45    19    38    1
@<TRIPOS>MOLECULE
*****
 40 45 0 0 0
SMALL
GASTEIGER

@<TRIPOS>ATOM
      1 C         142.8566  140.1352  154.7675 C.ar    1  UNL1        0.2400
      2 N         143.3711  138.8410  155.3247 N.ar    1  UNL1       -0.2090
      3 C         143.3095  138.5828  156.8009 C.ar    1  UNL1        0.1021
      4 C         142.7956  139.4058  157.9991 C.ar    1  UNL1        0.0207
      5 C         142.6381  140.1086  156.6833 C.ar    1  UNL1        0.0221
      6 C         142.2806  141.1712  155.6868 C.ar    1  UNL1        0.1178
      7 N         141.7661  142.4654  155.1296 N.pl3   1  UNL1       -0.2104
      8 S         141.1568  143.8351  155.0792 S.O2    1  UNL1        0.0737
      9 O         140.8623  144.7901  153.9606 O.2     1  UNL1       -0.1499
     10 O         141.5542  143.3116  153.7308 O.2     1  UNL1       -0.1499
     11 C         140.5260  145.1152  155.5414 C.ar    1  UNL1        0.1253
     12 C         140.1685  146.1777  154.5449 C.ar    1  UNL1        0.0202
     13 C         139.5378  147.4577  155.0071 C.ar    1  UNL1        0.0015
     14 C         139.2646  147.6752  156.4659 C.ar    1  UNL1        0.0046
     15 C         139.6221  146.6127  157.4624 C.ar    1  UNL1        0.0547
     16 C         140.2528  145.3327  157.0002 C.ar    1  UNL1        0.0247
     17 C         139.2249  147.0356  159.1847 C.2     1  UNL1        0.2461
     18 O         138.6156  148.4053  159.1343 O.2     1  UNL1       -0.2701
     19 N         139.1634  146.7772  160.6610 N.am    1  UNL1       -0.2969
     20 C         139.3208  146.0745  161.9768 C.3     1  UNL1        0.1166
     21 C         139.6783  145.0119  162.9734 C.ar    1  UNL1       -0.0026
     22 C         139.5407  144.9081  164.5054 C.ar    1  UNL1       -0.0026
     23 C         139.8982  143.8455  165.5020 C.ar    1  UNL1       -0.0003
     24 C         140.5289  142.5655  165.0397 C.ar    1  UNL1       -0.0000
     25 C         140.8021  142.3480  163.5810 C.ar    1  UNL1       -0.0002
     26 C         140.1928  143.7177  163.5305 C.ar    1  UNL1       -0.0026
     27 C         141.4328  141.0680  163.1187 C.ar    1  UNL1        0.0030
     28 C         141.3713  140.8097  164.5951 C.ar    1  UNL1        0.0207
     29 C         141.8857  139.5155  165.1521 C.ar    1  UNL1        0.0988
     30 N         142.4618  138.4795  164.2330 N.ar    1  UNL1       -0.2438
     31 C         142.5234  138.7378  162.7566 C.ar    1  UNL1        0.0813
     32 C         143.1326  137.6939  161.5915 C.ar    1  UNL1        0.0191
     33 C         143.2279  137.8794  160.1061 C.ar    1  UNL1        0.0016
     34 C         142.7340  139.1476  159.4754 C.ar    1  UNL1        0.0016
     35 C         142.4608  139.3651  160.9342 C.ar    1  UNL1        0.0015
     36 C         142.0089  140.0320  162.1995 C.ar    1  UNL1        0.0177
     37 H         141.9454  142.3226  154.1722 H       1  UNL1        0.1739
     38 H         138.7494  147.6174  160.9644 H       1  UNL1        0.1501
     39 C         143.3371  139.2988  152.3552 C.3     1  UNL1        0.2543
     40 O         142.9182  140.3934  153.2912 O.3     1  UNL1       -0.4553
@<TRIPOS>BOND
     1    39    40    1
     2    40     1    1
     3     1     2   ar
     4     2     3   ar
     5     3     4   ar
     6     4     5   ar
     7     5     6   ar
     8     6     7    1
     9     7     8    1
    10     8     9    2
    11     8    10    2
    12     8    11    1
    13    11    12   ar
    14    12    13   ar
    15    13    14   ar
    16    14    15   ar
    17    15    16   ar
    18    15    17    1
    19    17    18    2
    20    17    19   am
    21    19    20    1
    22    20    21    1
    23    21    22   ar
    24    22    23   ar
    25    23    24   ar
    26    24    25   ar
    27    25    26   ar
    28    25    27    1
    29    27    28   ar
    30    28    29   ar
    31    29    30   ar
    32    30    31   ar
    33    31    32   ar
    34    32    33   ar
    35    33    34   ar
    36    34    35   ar
    37    35    36   ar
    38     6     1   ar
    39    16    11   ar
    40    26    21   ar
    41    36    27   ar
    42    34     4    1
    43    36    31   ar
    44     7    37    1
    45    19    38    1
@<TRIPOS>MOLECULE
*****
 40 45 0 0 0
SMALL
GASTEIGER

@<TRIPOS>ATOM
      1 C         142.7889  143.4588  161.9175 C.ar    1  UNL1        0.2400
      2 N         143.4354  142.3485  162.6918 N.ar    1  UNL1       -0.2090
      3 C         143.5112  140.9702  162.1050 C.ar    1  UNL1        0.1021
      4 C         143.0395  140.3606  160.7697 C.ar    1  UNL1        0.0207
      5 C         142.7279  141.8222  160.8994 C.ar    1  UNL1        0.0221
      6 C         142.2182  143.1905  160.5565 C.ar    1  UNL1        0.1178
      7 N         141.5716  144.3007  159.7822 N.pl3   1  UNL1       -0.2104
      8 S         140.8664  145.0188  158.6700 S.O2    1  UNL1        0.0737
      9 O         140.4169  146.4375  158.4828 O.2     1  UNL1       -0.1499
     10 O         141.1892  145.9033  159.8377 O.2     1  UNL1       -0.1499
     11 C         140.1874  145.2582  157.3540 C.ar    1  UNL1        0.1253
     12 C         139.6776  146.6266  157.0111 C.ar    1  UNL1        0.0202
     13 C         138.9987  146.8659  155.6952 C.ar    1  UNL1        0.0015
     14 C         138.8296  145.7369  154.7222 C.ar    1  UNL1        0.0046
     15 C         139.3394  144.3685  155.0651 C.ar    1  UNL1        0.0547
     16 C         140.0183  144.1292  156.3810 C.ar    1  UNL1        0.0247
     17 C         139.0539  143.1175  153.7782 C.2     1  UNL1        0.2461
     18 O         138.3487  143.8356  152.6660 O.2     1  UNL1       -0.2701
     19 N         139.1297  141.7391  153.1915 N.am    1  UNL1       -0.2969
     20 C         139.4413  140.2776  153.0617 C.3     1  UNL1        0.1166
     21 C         139.9511  138.9092  153.4047 C.ar    1  UNL1       -0.0026
     22 C         139.9450  137.5597  152.6592 C.ar    1  UNL1       -0.0026
     23 C         140.4548  136.1912  153.0022 C.ar    1  UNL1       -0.0003
     24 C         141.1338  135.9519  154.3182 C.ar    1  UNL1       -0.0000
     25 C         141.3029  137.0809  155.2912 C.ar    1  UNL1       -0.0002
     26 C         140.5976  137.7990  154.1790 C.ar    1  UNL1       -0.0026
     27 C         141.9818  136.8415  156.6071 C.ar    1  UNL1        0.0030
     28 C         142.0576  135.4631  156.0204 C.ar    1  UNL1        0.0207
     29 C         142.7041  134.3529  156.7947 C.ar    1  UNL1        0.0988
     30 N         143.2749  134.6211  158.1556 N.ar    1  UNL1       -0.2438
     31 C         143.1990  135.9996  158.7424 C.ar    1  UNL1        0.0813
     32 C         143.7835  136.4722  160.2435 C.ar    1  UNL1        0.0191
     33 C         143.7456  137.8225  160.8957 C.ar    1  UNL1        0.0016
     34 C         143.1153  138.9822  160.1830 C.ar    1  UNL1        0.0016
     35 C         142.9462  137.8532  159.2100 C.ar    1  UNL1        0.0015
     36 C         142.5525  137.1098  157.9681 C.ar    1  UNL1        0.0177
     37 H         141.6827  145.0417  160.4208 H       1  UNL1        0.1739
     38 H         138.6841  141.8962  152.3278 H       1  UNL1        0.1501
     39 C         141.7266  145.1352  163.5942 C.3     1  UNL1        0.2543
     40 O         142.7131  144.8371  162.5043 O.3     1  UNL1       -0.4553
@<TRIPOS>BOND
     1    39    40    1
     2    40     1    1
     3     1     2   ar
     4     2     3   ar
     5     3     4   ar
     6     4     5   ar
     7     5     6   ar
     8     6     7    1
     9     7     8    1
    10     8     9    2
    11     8    10    2
    12     8    11    1
    13    11    12   ar
    14    12    13   ar
    15    13    14   ar
    16    14    15   ar
    17    15    16   ar
    18    15    17    1
    19    17    18    2
    20    17    19   am
    21    19    20    1
    22    20    21    1
    23    21    22   ar
    24    22    23   ar
    25    23    24   ar
    26    24    25   ar
    27    25    26   ar
    28    25    27    1
    29    27    28   ar
    30    28    29   ar
    31    29    30   ar
    32    30    31   ar
    33    31    32   ar
    34    32    33   ar
    35    33    34   ar
    36    34    35   ar
    37    35    36   ar
    38     6     1   ar
    39    16    11   ar
    40    26    21   ar
    41    36    27   ar
    42    34     4    1
    43    36    31   ar
    44     7    37    1
    45    19    38    1
@<TRIPOS>MOLECULE
*****
 40 45 0 0 0
SMALL
GASTEIGER

@<TRIPOS>ATOM
      1 C         144.0127  139.7533  160.1342 C.ar    1  UNL1        0.2400
      2 N         144.1301  141.1241  160.7317 N.ar    1  UNL1       -0.2090
      3 C         143.3362  142.2615  160.1608 C.ar    1  UNL1        0.1021
      4 C         142.3320  142.3722  158.9961 C.ar    1  UNL1        0.0207
      5 C         142.8749  140.9866  159.1838 C.ar    1  UNL1        0.0221
      6 C         143.1013  139.5199  158.9658 C.ar    1  UNL1        0.1178
      7 N         142.9839  138.1490  158.3684 N.pl3   1  UNL1       -0.2104
      8 S         142.5369  137.0394  157.4635 S.O2    1  UNL1        0.0737
      9 O         142.8738  135.5801  157.3802 O.2     1  UNL1       -0.1499
     10 O         143.5266  136.5980  158.5007 O.2     1  UNL1       -0.1499
     11 C         141.8141  136.3248  156.3603 C.ar    1  UNL1        0.1253
     12 C         142.0405  134.8581  156.1423 C.ar    1  UNL1        0.0202
     13 C         141.3177  134.1435  155.0392 C.ar    1  UNL1        0.0015
     14 C         140.3686  134.8956  154.1540 C.ar    1  UNL1        0.0046
     15 C         140.1422  136.3623  154.3720 C.ar    1  UNL1        0.0547
     16 C         140.8649  137.0768  155.4752 C.ar    1  UNL1        0.0247
     17 C         138.9637  137.1195  153.2142 C.2     1  UNL1        0.2461
     18 O         138.5166  136.0098  152.3093 O.2     1  UNL1       -0.2701
     19 N         138.1698  138.2570  152.6434 N.am    1  UNL1       -0.2969
     20 C         137.6269  139.6426  152.4556 C.3     1  UNL1        0.1166
     21 C         137.4005  141.1093  152.6737 C.ar    1  UNL1       -0.0026
     22 C         136.5194  142.1606  151.9697 C.ar    1  UNL1       -0.0026
     23 C         136.2930  143.6273  152.1878 C.ar    1  UNL1       -0.0003
     24 C         137.0158  144.3419  153.2909 C.ar    1  UNL1       -0.0000
     25 C         137.9649  143.5898  154.1760 C.ar    1  UNL1       -0.0002
     26 C         137.5179  142.4802  153.2711 C.ar    1  UNL1       -0.0026
     27 C         138.6877  144.3044  155.2792 C.ar    1  UNL1        0.0030
     28 C         137.8938  145.4419  154.7083 C.ar    1  UNL1        0.0207
     29 C         138.0112  146.8127  155.3058 C.ar    1  UNL1        0.0988
     30 N         138.9225  147.0462  156.4741 N.ar    1  UNL1       -0.2438
     31 C         139.7164  145.9086  157.0450 C.ar    1  UNL1        0.0813
     32 C         140.7777  145.9926  158.3431 C.ar    1  UNL1        0.0191
     33 C         141.6024  144.9066  158.9679 C.ar    1  UNL1        0.0016
     34 C         141.5381  143.5097  158.4252 C.ar    1  UNL1        0.0016
     35 C         140.5889  144.2618  157.5401 C.ar    1  UNL1        0.0015
     36 C         139.5990  144.5378  156.4475 C.ar    1  UNL1        0.0177
     37 H         143.6069  137.6554  158.9493 H       1  UNL1        0.1739
     38 H         137.6954  137.7879  151.9194 H       1  UNL1        0.1501
     39 C         144.1534  137.6384  161.6367 C.3     1  UNL1        0.2543
     40 O         144.8066  138.6159  160.7051 O.3     1  UNL1       -0.4553
@<TRIPOS>BOND
     1    39    40    1
     2    40     1    1
     3     1     2   ar
     4     2     3   ar
     5     3     4   ar
     6     4     5   ar
     7     5     6   ar
     8     6     7    1
     9     7     8    1
    10     8     9    2
    11     8    10    2
    12     8    11    1
    13    11    12   ar
    14    12    13   ar
    15    13    14   ar
    16    14    15   ar
    17    15    16   ar
    18    15    17    1
    19    17    18    2
    20    17    19   am
    21    19    20    1
    22    20    21    1
    23    21    22   ar
    24    22    23   ar
    25    23    24   ar
    26    24    25   ar
    27    25    26   ar
    28    25    27    1
    29    27    28   ar
    30    28    29   ar
    31    29    30   ar
    32    30    31   ar
    33    31    32   ar
    34    32    33   ar
    35    33    34   ar
    36    34    35   ar
    37    35    36   ar
    38     6     1   ar
    39    16    11   ar
    40    26    21   ar
    41    36    27   ar
    42    34     4    1
    43    36    31   ar
    44     7    37    1
    45    19    38    1
@<TRIPOS>MOLECULE
*****
 40 45 0 0 0
SMALL
GASTEIGER

@<TRIPOS>ATOM
      1 C         143.5741  140.1033  161.9144 C.ar    1  UNL1        0.2400
      2 N         143.4408  141.5029  162.4371 N.ar    1  UNL1       -0.2090
      3 C         142.7498  142.5486  161.6132 C.ar    1  UNL1        0.1021
      4 C         142.0790  142.5301  160.2250 C.ar    1  UNL1        0.0207
      5 C         142.6446  141.2012  160.6302 C.ar    1  UNL1        0.0221
      6 C         143.0164  139.7494  160.5676 C.ar    1  UNL1        0.1178
      7 N         143.1498  138.3497  160.0449 N.pl3   1  UNL1       -0.2104
      8 S         143.0285  137.1712  159.1250 S.O2    1  UNL1        0.0737
      9 O         143.4711  135.7412  159.2203 O.2     1  UNL1       -0.1499
     10 O         143.7404  136.8538  160.4066 O.2     1  UNL1       -0.1499
     11 C         142.6672  136.3557  157.9189 C.ar    1  UNL1        0.1253
     12 C         143.0390  134.9039  157.8564 C.ar    1  UNL1        0.0202
     13 C         142.6778  134.0885  156.6503 C.ar    1  UNL1        0.0015
     14 C         141.9446  134.7249  155.5069 C.ar    1  UNL1        0.0046
     15 C         141.5728  136.1767  155.5694 C.ar    1  UNL1        0.0547
     16 C         141.9340  136.9921  156.7755 C.ar    1  UNL1        0.0247
     17 C         140.6895  136.7885  154.1037 C.2     1  UNL1        0.2461
     18 O         140.5682  135.6099  153.1838 O.2     1  UNL1       -0.2701
     19 N         139.9985  137.8342  153.2798 N.am    1  UNL1       -0.2969
     20 C         139.4329  139.1631  152.8746 C.3     1  UNL1        0.1166
     21 C         139.0611  140.6150  152.9372 C.ar    1  UNL1       -0.0026
     22 C         138.3265  141.5623  151.9677 C.ar    1  UNL1       -0.0026
     23 C         137.9546  143.0142  152.0303 C.ar    1  UNL1       -0.0003
     24 C         138.3159  143.8296  153.2364 C.ar    1  UNL1       -0.0000
     25 C         139.0490  143.1932  154.3798 C.ar    1  UNL1       -0.0002
     26 C         138.9277  142.0146  153.4599 C.ar    1  UNL1       -0.0026
     27 C         139.4103  144.0086  155.5858 C.ar    1  UNL1        0.0030
     28 C         138.7192  145.0544  154.7618 C.ar    1  UNL1        0.0207
     29 C         138.5860  146.4540  155.2846 C.ar    1  UNL1        0.0988
     30 N         139.1436  146.8079  156.6313 N.ar    1  UNL1       -0.2438
     31 C         139.8347  145.7621  157.4554 C.ar    1  UNL1        0.0813
     32 C         140.5129  145.9847  158.9749 C.ar    1  UNL1        0.0191
     33 C         141.2161  144.9949  159.8557 C.ar    1  UNL1        0.0016
     34 C         141.3880  143.5758  159.4011 C.ar    1  UNL1        0.0016
     35 C         140.6548  144.2122  158.2576 C.ar    1  UNL1        0.0015
     36 C         139.9680  144.3625  156.9326 C.ar    1  UNL1        0.0177
     37 H         143.6309  137.9321  160.7954 H       1  UNL1        0.1739
     38 H         139.7614  137.2990  152.4882 H       1  UNL1        0.1501
     39 C         144.8383  139.4156  164.0775 C.3     1  UNL1        0.2543
     40 O         144.2651  139.0576  162.7384 O.3     1  UNL1       -0.4553
@<TRIPOS>BOND
     1    39    40    1
     2    40     1    1
     3     1     2   ar
     4     2     3   ar
     5     3     4   ar
     6     4     5   ar
     7     5     6   ar
     8     6     7    1
     9     7     8    1
    10     8     9    2
    11     8    10    2
    12     8    11    1
    13    11    12   ar
    14    12    13   ar
    15    13    14   ar
    16    14    15   ar
    17    15    16   ar
    18    15    17    1
    19    17    18    2
    20    17    19   am
    21    19    20    1
    22    20    21    1
    23    21    22   ar
    24    22    23   ar
    25    23    24   ar
    26    24    25   ar
    27    25    26   ar
    28    25    27    1
    29    27    28   ar
    30    28    29   ar
    31    29    30   ar
    32    30    31   ar
    33    31    32   ar
    34    32    33   ar
    35    33    34   ar
    36    34    35   ar
    37    35    36   ar
    38     6     1   ar
    39    16    11   ar
    40    26    21   ar
    41    36    27   ar
    42    34     4    1
    43    36    31   ar
    44     7    37    1
    45    19    38    1
