@<TRIPOS>MOLECULE
*****
 39 43 0 0 0
SMALL
GASTEIGER

@<TRIPOS>ATOM
      1 C         141.7407  138.9415  161.5088 C.3     1  UNL1        0.0758
      2 C         142.6561  137.8352  161.0754 C.3     1  UNL1        0.0370
      3 C         142.9337  137.6193  159.6172 C.3     1  UNL1        0.0741
      4 N         142.2957  138.5097  158.5925 N.3     1  UNL1       -0.2688
      5 C         141.3802  139.6161  159.0259 C.3     1  UNL1        0.0741
      6 C         141.1027  139.8319  160.4841 C.3     1  UNL1        0.0370
      7 O         138.9949  138.4318  162.6047 O.2     1  UNL1       -0.2526
      8 C         140.0902  138.9026  163.5150 C.2     1  UNL1        0.3039
      9 N         141.4631  139.1574  162.9671 N.am    1  UNL1       -0.2903
     10 N         139.8126  139.1185  164.9732 N.am    1  UNL1       -0.2637
     11 C         138.4398  138.8637  165.5211 C.3     1  UNL1        0.0950
     12 C         138.1623  139.0796  166.9793 C.3     1  UNL1        0.0221
     13 C         139.2576  139.5504  167.8896 C.3     1  UNL1        0.0126
     14 C         140.6305  139.8053  167.3417 C.3     1  UNL1        0.0966
     15 C         140.9080  139.5893  165.8835 C.3     1  UNL1        0.1040
     16 H         142.1820  139.4664  163.5645 H       1  UNL1        0.1509
     17 C         141.7258  140.2761  168.2519 C.2     1  UNL1        0.2268
     18 O         142.9494  139.4318  168.4521 O.2     1  UNL1       -0.2748
     19 N         141.5976  141.5911  168.9620 N.am    1  UNL1       -0.2795
     20 C         142.6054  142.1896  169.8980 C.3     1  UNL1        0.0935
     21 C         142.0697  143.5069  170.3752 C.3     1  UNL1        0.0233
     22 C         140.7308  143.7225  169.7341 C.3     1  UNL1        0.0233
     23 C         140.4391  142.5385  168.8607 C.3     1  UNL1        0.0935
     24 C         142.5733  138.2938  157.1342 C.3     1  UNL1        0.1007
     25 C         142.3367  136.9473  156.5171 C.ar    1  UNL1        0.0129
     26 C         141.1057  136.5226  155.7727 C.ar    1  UNL1        0.0176
     27 C         141.2977  135.1019  155.3315 C.ar    1  UNL1        0.0799
     28 N         142.6476  134.6485  155.8033 N.ar    1  UNL1       -0.3038
     29 C         143.2897  135.7890  156.5360 C.ar    1  UNL1        0.0772
     30 C         143.2496  133.2927  155.5812 C.ar    1  UNL1        0.0640
     31 C         142.7692  132.4352  154.4482 C.ar    1  UNL1        0.0175
     32 C         143.3712  131.0794  154.2262 C.ar    1  UNL1        0.0053
     33 C         144.4535  130.5810  155.1372 C.ar    1  UNL1        0.0715
     34 C         144.9339  131.4384  156.2703 C.ar    1  UNL1        0.0053
     35 C         144.3319  132.7943  156.4923 C.ar    1  UNL1        0.0175
     36 C         145.0555  129.2252  154.9152 C.3     1  UNL1        0.4186
     37 F         145.6575  127.8693  154.6930 F       1  UNL1       -0.1659
     38 F         144.9124  128.9222  156.3772 F       1  UNL1       -0.1659
     39 F         145.1986  129.5281  153.4530 F       1  UNL1       -0.1659
@<TRIPOS>BOND
     1     7     8    2
     2     8     9   am
     3     9     1    1
     4     1     2    1
     5     2     3    1
     6     3     4    1
     7     4    24    1
     8    24    25    1
     9    25    26   ar
    10    26    27   ar
    11    27    28   ar
    12    28    30    1
    13    30    31   ar
    14    31    32   ar
    15    32    33   ar
    16    33    36    1
    17    36    37    1
    18    36    38    1
    19    36    39    1
    20    33    34   ar
    21    34    35   ar
    22    28    29   ar
    23     4     5    1
    24     5     6    1
    25     8    10   am
    26    10    11    1
    27    11    12    1
    28    12    13    1
    29    13    14    1
    30    14    17    1
    31    17    18    2
    32    17    19   am
    33    19    20    1
    34    20    21    1
    35    21    22    1
    36    22    23    1
    37    14    15    1
    38     6     1    1
    39    15    10    1
    40    29    25   ar
    41    23    19    1
    42    35    30   ar
    43     9    16    1
@<TRIPOS>MOLECULE
*****
 39 43 0 0 0
SMALL
GASTEIGER

@<TRIPOS>ATOM
      1 C         140.9782  138.3091  157.8646 C.3     1  UNL1        0.0758
      2 C         139.5835  138.7178  158.2358 C.3     1  UNL1        0.0370
      3 C         139.3544  139.9751  159.0211 C.3     1  UNL1        0.0741
      4 N         140.5200  140.8236  159.4352 N.3     1  UNL1       -0.2688
      5 C         141.9146  140.4149  159.0640 C.3     1  UNL1        0.0741
      6 C         142.1437  139.1577  158.2787 C.3     1  UNL1        0.0370
      7 O         141.1558  138.4211  154.8719 O.2     1  UNL1       -0.2526
      8 C         141.2962  137.1078  155.5830 C.2     1  UNL1        0.3039
      9 N         141.2073  137.0518  157.0793 N.am    1  UNL1       -0.2903
     10 N         141.5253  135.8505  154.7976 N.am    1  UNL1       -0.2637
     11 C         141.6141  135.9065  153.3013 C.3     1  UNL1        0.0950
     12 C         141.8433  134.6492  152.5161 C.3     1  UNL1        0.0221
     13 C         141.9836  133.3359  153.2271 C.3     1  UNL1        0.0126
     14 C         141.8948  133.2799  154.7234 C.3     1  UNL1        0.0966
     15 C         141.6657  134.5372  155.5086 C.3     1  UNL1        0.1040
     16 H         141.2994  136.1898  157.5459 H       1  UNL1        0.1509
     17 C         142.0352  131.9666  155.4344 C.2     1  UNL1        0.2268
     18 O         141.0323  130.8760  155.2002 O.2     1  UNL1       -0.2748
     19 N         143.1783  131.7439  156.3797 N.am    1  UNL1       -0.2795
     20 C         143.4474  130.4902  157.1580 C.3     1  UNL1        0.0935
     21 C         144.6885  130.7072  157.9719 C.3     1  UNL1        0.0233
     22 C         145.1865  132.0951  157.6966 C.3     1  UNL1        0.0233
     23 C         144.2531  132.7358  156.7125 C.3     1  UNL1        0.0935
     24 C         140.2908  142.0810  160.2206 C.3     1  UNL1        0.1007
     25 C         139.6023  142.0188  161.5517 C.ar    1  UNL1        0.0129
     26 C         138.1947  142.4513  161.8374 C.ar    1  UNL1        0.0176
     27 C         137.9230  142.2130  163.2932 C.ar    1  UNL1        0.0799
     28 N         139.1626  141.6332  163.9073 N.ar    1  UNL1       -0.3038
     29 C         140.2005  141.5131  162.8310 C.ar    1  UNL1        0.0772
     30 C         139.3342  141.2421  165.3452 C.ar    1  UNL1        0.0640
     31 C         138.7106  139.9781  165.8582 C.ar    1  UNL1        0.0175
     32 C         138.8822  139.5869  167.2961 C.ar    1  UNL1        0.0053
     33 C         139.6774  140.4598  168.2210 C.ar    1  UNL1        0.0715
     34 C         140.3011  141.7239  167.7080 C.ar    1  UNL1        0.0053
     35 C         140.1295  142.1150  166.2701 C.ar    1  UNL1        0.0175
     36 C         139.8490  140.0687  169.6588 C.3     1  UNL1        0.4186
     37 F         140.0207  139.6775  171.0968 F       1  UNL1       -0.1659
     38 F         138.5045  140.6521  169.9780 F       1  UNL1       -0.1659
     39 F         141.1937  139.4853  169.3397 F       1  UNL1       -0.1659
@<TRIPOS>BOND
     1     7     8    2
     2     8     9   am
     3     9     1    1
     4     1     2    1
     5     2     3    1
     6     3     4    1
     7     4    24    1
     8    24    25    1
     9    25    26   ar
    10    26    27   ar
    11    27    28   ar
    12    28    30    1
    13    30    31   ar
    14    31    32   ar
    15    32    33   ar
    16    33    36    1
    17    36    37    1
    18    36    38    1
    19    36    39    1
    20    33    34   ar
    21    34    35   ar
    22    28    29   ar
    23     4     5    1
    24     5     6    1
    25     8    10   am
    26    10    11    1
    27    11    12    1
    28    12    13    1
    29    13    14    1
    30    14    17    1
    31    17    18    2
    32    17    19   am
    33    19    20    1
    34    20    21    1
    35    21    22    1
    36    22    23    1
    37    14    15    1
    38     6     1    1
    39    15    10    1
    40    29    25   ar
    41    23    19    1
    42    35    30   ar
    43     9    16    1
@<TRIPOS>MOLECULE
*****
 39 43 0 0 0
SMALL
GASTEIGER

@<TRIPOS>ATOM
      1 C         139.4702  139.9509  159.3122 C.3     1  UNL1        0.0758
      2 C         138.3637  139.4983  160.2181 C.3     1  UNL1        0.0370
      3 C         137.7891  140.4442  161.2305 C.3     1  UNL1        0.0741
      4 N         138.3211  141.8426  161.3371 N.3     1  UNL1       -0.2688
      5 C         139.4276  142.2952  160.4312 C.3     1  UNL1        0.0741
      6 C         140.0022  141.3493  159.4187 C.3     1  UNL1        0.0370
      7 O         138.1161  139.5888  156.6597 O.2     1  UNL1       -0.2526
      8 C         139.3678  138.8240  156.9734 C.2     1  UNL1        0.3039
      9 N         140.0448  139.0050  158.2996 N.am    1  UNL1       -0.2903
     10 N         139.9424  137.8781  155.9609 N.am    1  UNL1       -0.2637
     11 C         139.2654  137.6971  154.6347 C.3     1  UNL1        0.0950
     12 C         139.8400  136.7512  153.6222 C.3     1  UNL1        0.0221
     13 C         141.0916  135.9864  153.9359 C.3     1  UNL1        0.0126
     14 C         141.7687  136.1674  155.2621 C.3     1  UNL1        0.0966
     15 C         141.1941  137.1133  156.2746 C.3     1  UNL1        0.1040
     16 H         140.8663  138.5030  158.5055 H       1  UNL1        0.1509
     17 C         143.0203  135.4026  155.5758 C.2     1  UNL1        0.2268
     18 O         144.3227  136.1291  155.7366 O.2     1  UNL1       -0.2748
     19 N         142.9696  133.9113  155.7287 N.am    1  UNL1       -0.2795
     20 C         144.1327  133.0168  156.0402 C.3     1  UNL1        0.0935
     21 C         143.6288  131.6053  156.1009 C.3     1  UNL1        0.0233
     22 C         142.1542  131.6275  155.8269 C.3     1  UNL1        0.0233
     23 C         141.7468  133.0526  155.5969 C.3     1  UNL1        0.0935
     24 C         137.7465  142.7885  162.3497 C.3     1  UNL1        0.1007
     25 C         138.4590  143.0196  163.6492 C.ar    1  UNL1        0.0129
     26 C         138.6154  144.3384  164.3466 C.ar    1  UNL1        0.0176
     27 C         139.3933  144.1064  165.6079 C.ar    1  UNL1        0.0799
     28 N         139.7178  142.6442  165.6901 N.ar    1  UNL1       -0.3038
     29 C         139.1403  141.9725  164.4796 C.ar    1  UNL1        0.0772
     30 C         140.4849  141.9717  166.7898 C.ar    1  UNL1        0.0640
     31 C         141.8593  142.4535  167.1486 C.ar    1  UNL1        0.0175
     32 C         142.6265  141.7810  168.2482 C.ar    1  UNL1        0.0053
     33 C         142.0192  140.6268  168.9891 C.ar    1  UNL1        0.0715
     34 C         140.6448  140.1450  168.6303 C.ar    1  UNL1        0.0053
     35 C         139.8776  140.8174  167.5307 C.ar    1  UNL1        0.0175
     36 C         142.7864  139.9544  170.0887 C.3     1  UNL1        0.4186
     37 F         143.5535  139.2819  171.1884 F       1  UNL1       -0.1659
     38 F         143.7814  141.0768  170.0809 F       1  UNL1       -0.1659
     39 F         141.7913  138.8319  170.0966 F       1  UNL1       -0.1659
@<TRIPOS>BOND
     1     7     8    2
     2     8     9   am
     3     9     1    1
     4     1     2    1
     5     2     3    1
     6     3     4    1
     7     4    24    1
     8    24    25    1
     9    25    26   ar
    10    26    27   ar
    11    27    28   ar
    12    28    30    1
    13    30    31   ar
    14    31    32   ar
    15    32    33   ar
    16    33    36    1
    17    36    37    1
    18    36    38    1
    19    36    39    1
    20    33    34   ar
    21    34    35   ar
    22    28    29   ar
    23     4     5    1
    24     5     6    1
    25     8    10   am
    26    10    11    1
    27    11    12    1
    28    12    13    1
    29    13    14    1
    30    14    17    1
    31    17    18    2
    32    17    19   am
    33    19    20    1
    34    20    21    1
    35    21    22    1
    36    22    23    1
    37    14    15    1
    38     6     1    1
    39    15    10    1
    40    29    25   ar
    41    23    19    1
    42    35    30   ar
    43     9    16    1
@<TRIPOS>MOLECULE
*****
 39 43 0 0 0
SMALL
GASTEIGER

@<TRIPOS>ATOM
      1 C         140.9928  142.1141  161.0625 C.3     1  UNL1        0.0758
      2 C         141.8229  141.3377  160.0838 C.3     1  UNL1        0.0370
      3 C         141.9545  141.8146  158.6678 C.3     1  UNL1        0.0741
      4 N         141.2559  143.0679  158.2305 N.3     1  UNL1       -0.2688
      5 C         140.4257  143.8443  159.2092 C.3     1  UNL1        0.0741
      6 C         140.2942  143.3674  160.6253 C.3     1  UNL1        0.0370
      7 O         138.4959  140.7043  161.9447 O.2     1  UNL1       -0.2526
      8 C         139.6127  140.9323  162.9197 C.2     1  UNL1        0.3039
      9 N         140.8611  141.6372  162.4787 N.am    1  UNL1       -0.2903
     10 N         139.4811  140.4554  164.3358 N.am    1  UNL1       -0.2637
     11 C         138.2327  139.7505  164.7769 C.3     1  UNL1        0.0950
     12 C         138.1012  139.2737  166.1930 C.3     1  UNL1        0.0221
     13 C         139.2180  139.5017  167.1680 C.3     1  UNL1        0.0126
     14 C         140.4664  140.2066  166.7269 C.3     1  UNL1        0.0966
     15 C         140.5980  140.6835  165.3109 C.3     1  UNL1        0.1040
     16 H         141.5942  141.7868  163.1186 H       1  UNL1        0.1509
     17 C         141.5833  140.4347  167.7019 C.2     1  UNL1        0.2268
     18 O         142.7420  139.4834  167.7510 O.2     1  UNL1       -0.2748
     19 N         141.5414  141.6140  168.6279 N.am    1  UNL1       -0.2795
     20 C         142.5797  141.9694  169.6505 C.3     1  UNL1        0.0935
     21 C         142.1340  143.2200  170.3484 C.3     1  UNL1        0.0233
     22 C         140.8201  143.6376  169.7571 C.3     1  UNL1        0.0233
     23 C         140.4540  142.6450  168.6938 C.3     1  UNL1        0.0935
     24 C         141.3875  143.5448  156.8143 C.3     1  UNL1        0.1007
     25 C         140.4327  144.5687  156.2760 C.ar    1  UNL1        0.0129
     26 C         139.1260  144.2844  155.5964 C.ar    1  UNL1        0.0176
     27 C         138.5026  145.5967  155.2231 C.ar    1  UNL1        0.0799
     28 N         139.4241  146.6920  155.6719 N.ar    1  UNL1       -0.3038
     29 C         140.6169  146.0566  156.3226 C.ar    1  UNL1        0.0772
     30 C         139.1932  148.1641  155.5001 C.ar    1  UNL1        0.0640
     31 C         139.6801  148.8604  154.2641 C.ar    1  UNL1        0.0175
     32 C         139.4492  150.3326  154.0923 C.ar    1  UNL1        0.0053
     33 C         138.7314  151.1083  155.1566 C.ar    1  UNL1        0.0715
     34 C         138.2444  150.4120  156.3927 C.ar    1  UNL1        0.0053
     35 C         138.4753  148.9399  156.5645 C.ar    1  UNL1        0.0175
     36 C         138.5005  152.5804  154.9848 C.3     1  UNL1        0.4186
     37 F         138.2696  154.0526  154.8132 F       1  UNL1       -0.1659
     38 F         138.1743  152.3604  153.5374 F       1  UNL1       -0.1659
     39 F         138.8266  152.8005  156.4324 F       1  UNL1       -0.1659
@<TRIPOS>BOND
     1     7     8    2
     2     8     9   am
     3     9     1    1
     4     1     2    1
     5     2     3    1
     6     3     4    1
     7     4    24    1
     8    24    25    1
     9    25    26   ar
    10    26    27   ar
    11    27    28   ar
    12    28    30    1
    13    30    31   ar
    14    31    32   ar
    15    32    33   ar
    16    33    36    1
    17    36    37    1
    18    36    38    1
    19    36    39    1
    20    33    34   ar
    21    34    35   ar
    22    28    29   ar
    23     4     5    1
    24     5     6    1
    25     8    10   am
    26    10    11    1
    27    11    12    1
    28    12    13    1
    29    13    14    1
    30    14    17    1
    31    17    18    2
    32    17    19   am
    33    19    20    1
    34    20    21    1
    35    21    22    1
    36    22    23    1
    37    14    15    1
    38     6     1    1
    39    15    10    1
    40    29    25   ar
    41    23    19    1
    42    35    30   ar
    43     9    16    1
@<TRIPOS>MOLECULE
*****
 39 43 0 0 0
SMALL
GASTEIGER

@<TRIPOS>ATOM
      1 C         138.5756  140.2998  159.1466 C.3     1  UNL1        0.0758
      2 C         137.7344  140.6587  160.3355 C.3     1  UNL1        0.0370
      3 C         137.8082  139.8304  161.5839 C.3     1  UNL1        0.0741
      4 N         138.7232  138.6433  161.6433 N.3     1  UNL1       -0.2688
      5 C         139.5644  138.2844  160.4543 C.3     1  UNL1        0.0741
      6 C         139.4906  139.1127  159.2060 C.3     1  UNL1        0.0370
      7 O         136.1130  140.2175  157.4351 O.2     1  UNL1       -0.2526
      8 C         137.2705  141.0870  157.0424 C.2     1  UNL1        0.3039
      9 N         138.5018  141.1281  157.8981 N.am    1  UNL1       -0.2903
     10 N         137.1967  141.9152  155.7940 N.am    1  UNL1       -0.2637
     11 C         135.9655  141.8741  154.9383 C.3     1  UNL1        0.0950
     12 C         135.8917  142.7023  153.6899 C.3     1  UNL1        0.0221
     13 C         137.0493  143.5718  153.2972 C.3     1  UNL1        0.0126
     14 C         138.2805  143.6130  154.1529 C.3     1  UNL1        0.0966
     15 C         138.3543  142.7847  155.4013 C.3     1  UNL1        0.1040
     16 H         139.2615  141.6988  157.6404 H       1  UNL1        0.1509
     17 C         139.4380  144.4824  153.7602 C.2     1  UNL1        0.2268
     18 O         140.5328  143.9290  152.8969 O.2     1  UNL1       -0.2748
     19 N         139.5008  145.9053  154.2308 N.am    1  UNL1       -0.2795
     20 C         140.5898  146.8892  153.9207 C.3     1  UNL1        0.0935
     21 C         140.2477  148.1861  154.5924 C.3     1  UNL1        0.0233
     22 C         138.9473  148.0036  155.3175 C.3     1  UNL1        0.0233
     23 C         138.4858  146.5940  155.0940 C.3     1  UNL1        0.0935
     24 C         138.7970  137.8150  162.8917 C.3     1  UNL1        0.1007
     25 C         139.8727  138.0777  163.9036 C.ar    1  UNL1        0.0129
     26 C         141.0893  137.2320  164.1367 C.ar    1  UNL1        0.0176
     27 C         141.8892  137.8638  165.2372 C.ar    1  UNL1        0.0799
     28 N         141.1668  139.1002  165.6842 N.ar    1  UNL1       -0.3038
     29 C         139.9205  139.2323  164.8600 C.ar    1  UNL1        0.0772
     30 C         141.6124  140.0393  166.7656 C.ar    1  UNL1        0.0640
     31 C         141.1922  141.4788  166.7289 C.ar    1  UNL1        0.0175
     32 C         141.6379  142.4179  167.8103 C.ar    1  UNL1        0.0053
     33 C         142.5037  141.9177  168.9282 C.ar    1  UNL1        0.0715
     34 C         142.9239  140.4782  168.9650 C.ar    1  UNL1        0.0053
     35 C         142.4782  139.5391  167.8836 C.ar    1  UNL1        0.0175
     36 C         142.9493  142.8569  170.0096 C.3     1  UNL1        0.4186
     37 F         143.3950  143.7960  171.0910 F       1  UNL1       -0.1659
     38 F         141.6168  143.5440  169.9619 F       1  UNL1       -0.1659
     39 F         144.2819  142.1697  170.0573 F       1  UNL1       -0.1659
@<TRIPOS>BOND
     1     7     8    2
     2     8     9   am
     3     9     1    1
     4     1     2    1
     5     2     3    1
     6     3     4    1
     7     4    24    1
     8    24    25    1
     9    25    26   ar
    10    26    27   ar
    11    27    28   ar
    12    28    30    1
    13    30    31   ar
    14    31    32   ar
    15    32    33   ar
    16    33    36    1
    17    36    37    1
    18    36    38    1
    19    36    39    1
    20    33    34   ar
    21    34    35   ar
    22    28    29   ar
    23     4     5    1
    24     5     6    1
    25     8    10   am
    26    10    11    1
    27    11    12    1
    28    12    13    1
    29    13    14    1
    30    14    17    1
    31    17    18    2
    32    17    19   am
    33    19    20    1
    34    20    21    1
    35    21    22    1
    36    22    23    1
    37    14    15    1
    38     6     1    1
    39    15    10    1
    40    29    25   ar
    41    23    19    1
    42    35    30   ar
    43     9    16    1
@<TRIPOS>MOLECULE
*****
 39 43 0 0 0
SMALL
GASTEIGER

@<TRIPOS>ATOM
      1 C         141.3457  138.9884  161.0085 C.3     1  UNL1        0.0758
      2 C         142.5302  138.1021  160.7611 C.3     1  UNL1        0.0370
      3 C         142.9015  137.7206  159.3588 C.3     1  UNL1        0.0741
      4 N         142.0883  138.2254  158.2038 N.3     1  UNL1       -0.2688
      5 C         140.9038  139.1117  158.4512 C.3     1  UNL1        0.0741
      6 C         140.5325  139.4932  159.8535 C.3     1  UNL1        0.0370
      7 O         139.3070  137.3800  162.5108 O.2     1  UNL1       -0.2526
      8 C         139.9550  138.5658  163.1619 C.2     1  UNL1        0.3039
      9 N         140.9743  139.3700  162.4108 N.am    1  UNL1       -0.2903
     10 N         139.5836  138.9473  164.5643 N.am    1  UNL1       -0.2637
     11 C         138.5643  138.1431  165.3154 C.3     1  UNL1        0.0950
     12 C         138.1930  138.5247  166.7177 C.3     1  UNL1        0.0221
     13 C         138.8409  139.7105  167.3689 C.3     1  UNL1        0.0126
     14 C         139.8602  140.5147  166.6178 C.3     1  UNL1        0.0966
     15 C         140.2316  140.1331  165.2155 C.3     1  UNL1        0.1040
     16 H         141.3996  140.1483  162.8382 H       1  UNL1        0.1509
     17 C         140.5082  141.7005  167.2689 C.2     1  UNL1        0.2268
     18 O         140.1374  143.0885  166.8380 O.2     1  UNL1       -0.2748
     19 N         141.5270  141.4983  168.3511 N.am    1  UNL1       -0.2795
     20 C         142.2553  142.5816  169.0900 C.3     1  UNL1        0.0935
     21 C         143.1748  141.9301  170.0799 C.3     1  UNL1        0.0233
     22 C         143.0148  140.4440  169.9528 C.3     1  UNL1        0.0233
     23 C         141.9964  140.1772  168.8843 C.3     1  UNL1        0.0935
     24 C         142.4597  137.8438  156.8015 C.3     1  UNL1        0.1007
     25 C         142.2272  136.4428  156.3189 C.ar    1  UNL1        0.0129
     26 C         141.0957  135.9875  155.4456 C.ar    1  UNL1        0.0176
     27 C         141.2545  134.5144  155.2118 C.ar    1  UNL1        0.0799
     28 N         142.4841  134.0592  155.9405 N.ar    1  UNL1       -0.3038
     29 C         143.0852  135.2510  156.6247 C.ar    1  UNL1        0.0772
     30 C         143.0186  132.6582  155.9784 C.ar    1  UNL1        0.0640
     31 C         144.4873  132.4207  156.1694 C.ar    1  UNL1        0.0175
     32 C         145.0218  131.0197  156.2073 C.ar    1  UNL1        0.0053
     33 C         144.0877  129.8562  156.0541 C.ar    1  UNL1        0.0715
     34 C         142.6190  130.0936  155.8631 C.ar    1  UNL1        0.0053
     35 C         142.0845  131.4946  155.8252 C.ar    1  UNL1        0.0175
     36 C         144.6223  128.4552  156.0920 C.3     1  UNL1        0.4186
     37 F         145.1568  127.0542  156.1299 F       1  UNL1       -0.1659
     38 F         145.5611  128.7831  154.9690 F       1  UNL1       -0.1659
     39 F         143.6834  128.1273  157.2150 F       1  UNL1       -0.1659
@<TRIPOS>BOND
     1     7     8    2
     2     8     9   am
     3     9     1    1
     4     1     2    1
     5     2     3    1
     6     3     4    1
     7     4    24    1
     8    24    25    1
     9    25    26   ar
    10    26    27   ar
    11    27    28   ar
    12    28    30    1
    13    30    31   ar
    14    31    32   ar
    15    32    33   ar
    16    33    36    1
    17    36    37    1
    18    36    38    1
    19    36    39    1
    20    33    34   ar
    21    34    35   ar
    22    28    29   ar
    23     4     5    1
    24     5     6    1
    25     8    10   am
    26    10    11    1
    27    11    12    1
    28    12    13    1
    29    13    14    1
    30    14    17    1
    31    17    18    2
    32    17    19   am
    33    19    20    1
    34    20    21    1
    35    21    22    1
    36    22    23    1
    37    14    15    1
    38     6     1    1
    39    15    10    1
    40    29    25   ar
    41    23    19    1
    42    35    30   ar
    43     9    16    1
@<TRIPOS>MOLECULE
*****
 39 43 0 0 0
SMALL
GASTEIGER

@<TRIPOS>ATOM
      1 C         140.1976  140.8817  159.7097 C.3     1  UNL1        0.0758
      2 C         141.2006  141.3005  158.6760 C.3     1  UNL1        0.0370
      3 C         141.1090  140.7600  157.2798 C.3     1  UNL1        0.0741
      4 N         140.0144  139.8006  156.9173 N.3     1  UNL1       -0.2688
      5 C         139.0114  139.3817  157.9509 C.3     1  UNL1        0.0741
      6 C         139.1030  139.9223  159.3471 C.3     1  UNL1        0.0370
      7 O         138.3149  143.0367  160.6104 O.2     1  UNL1       -0.2526
      8 C         139.3478  142.4997  161.5563 C.2     1  UNL1        0.3039
      9 N         140.2891  141.4222  161.1060 N.am    1  UNL1       -0.2903
     10 N         139.4393  143.0402  162.9526 N.am    1  UNL1       -0.2637
     11 C         138.4980  144.1177  163.4029 C.3     1  UNL1        0.0950
     12 C         138.5896  144.6581  164.7991 C.3     1  UNL1        0.0221
     13 C         139.6225  144.1211  165.7450 C.3     1  UNL1        0.0126
     14 C         140.5638  143.0436  165.2947 C.3     1  UNL1        0.0966
     15 C         140.4723  142.5032  163.8985 C.3     1  UNL1        0.1040
     16 H         140.9671  141.0697  161.7268 H       1  UNL1        0.1509
     17 C         141.5968  142.5066  166.2405 C.2     1  UNL1        0.2268
     18 O         143.0173  142.9790  166.1469 O.2     1  UNL1       -0.2748
     19 N         141.2091  141.4971  167.2801 N.am    1  UNL1       -0.2795
     20 C         142.1273  140.8736  168.2892 C.3     1  UNL1        0.0935
     21 C         141.3209  139.9250  169.1258 C.3     1  UNL1        0.0233
     22 C         139.9044  139.9623  168.6337 C.3     1  UNL1        0.0233
     23 C         139.8353  140.9339  167.4930 C.3     1  UNL1        0.0935
     24 C         139.9228  139.2601  155.5210 C.3     1  UNL1        0.1007
     25 C         140.4023  137.8707  155.2217 C.ar    1  UNL1        0.0129
     26 C         140.1934  137.1233  153.9381 C.ar    1  UNL1        0.0176
     27 C         140.8369  135.7755  154.0764 C.ar    1  UNL1        0.0799
     28 N         141.4436  135.6898  155.4456 N.ar    1  UNL1       -0.3038
     29 C         141.1750  136.9848  156.1534 C.ar    1  UNL1        0.0772
     30 C         142.1881  134.5154  156.0082 C.ar    1  UNL1        0.0640
     31 C         141.7831  133.1209  155.6328 C.ar    1  UNL1        0.0175
     32 C         142.5276  131.9465  156.1954 C.ar    1  UNL1        0.0053
     33 C         143.6771  132.1667  157.1334 C.ar    1  UNL1        0.0715
     34 C         144.0822  133.5613  157.5089 C.ar    1  UNL1        0.0053
     35 C         143.3377  134.7357  156.9463 C.ar    1  UNL1        0.0175
     36 C         144.4217  130.9924  157.6960 C.3     1  UNL1        0.4186
     37 F         145.1663  129.8180  158.2586 F       1  UNL1       -0.1659
     38 F         143.4141  130.0623  157.0879 F       1  UNL1       -0.1659
     39 F         145.4293  131.9224  158.3041 F       1  UNL1       -0.1659
@<TRIPOS>BOND
     1     7     8    2
     2     8     9   am
     3     9     1    1
     4     1     2    1
     5     2     3    1
     6     3     4    1
     7     4    24    1
     8    24    25    1
     9    25    26   ar
    10    26    27   ar
    11    27    28   ar
    12    28    30    1
    13    30    31   ar
    14    31    32   ar
    15    32    33   ar
    16    33    36    1
    17    36    37    1
    18    36    38    1
    19    36    39    1
    20    33    34   ar
    21    34    35   ar
    22    28    29   ar
    23     4     5    1
    24     5     6    1
    25     8    10   am
    26    10    11    1
    27    11    12    1
    28    12    13    1
    29    13    14    1
    30    14    17    1
    31    17    18    2
    32    17    19   am
    33    19    20    1
    34    20    21    1
    35    21    22    1
    36    22    23    1
    37    14    15    1
    38     6     1    1
    39    15    10    1
    40    29    25   ar
    41    23    19    1
    42    35    30   ar
    43     9    16    1
@<TRIPOS>MOLECULE
*****
 39 43 0 0 0
SMALL
GASTEIGER

@<TRIPOS>ATOM
      1 C         140.7930  138.9960  159.2850 C.3     1  UNL1        0.0758
      2 C         142.2530  139.1526  158.9790 C.3     1  UNL1        0.0370
      3 C         142.8157  138.5979  157.7040 C.3     1  UNL1        0.0741
      4 N         141.9183  137.8865  156.7351 N.3     1  UNL1       -0.2688
      5 C         140.4583  137.7299  157.0411 C.3     1  UNL1        0.0741
      6 C         139.8956  138.2847  158.3161 C.3     1  UNL1        0.0370
      7 O         139.3514  141.6269  159.2689 O.2     1  UNL1       -0.2526
      8 C         139.5095  140.8662  160.5520 C.2     1  UNL1        0.3039
      9 N         140.2302  139.5507  160.5601 N.am    1  UNL1       -0.2903
     10 N         138.9467  141.4209  161.8270 N.am    1  UNL1       -0.2637
     11 C         138.2260  142.7363  161.8189 C.3     1  UNL1        0.0950
     12 C         137.6632  143.2910  163.0939 C.3     1  UNL1        0.0221
     13 C         137.8212  142.5302  164.3770 C.3     1  UNL1        0.0126
     14 C         138.5420  141.2148  164.3851 C.3     1  UNL1        0.0966
     15 C         139.1047  140.6601  163.1101 C.3     1  UNL1        0.1040
     16 H         140.3339  139.0514  161.4022 H       1  UNL1        0.1509
     17 C         138.7000  140.4540  165.6681 C.2     1  UNL1        0.2268
     18 O         137.9862  139.1487  165.8589 O.2     1  UNL1       -0.2748
     19 N         139.5718  140.9986  166.7605 N.am    1  UNL1       -0.2795
     20 C         139.8247  140.3537  168.0910 C.3     1  UNL1        0.0935
     21 C         140.7530  141.2402  168.8669 C.3     1  UNL1        0.0233
     22 C         141.0739  142.4332  168.0160 C.3     1  UNL1        0.0233
     23 C         140.3439  142.2838  166.7142 C.3     1  UNL1        0.0935
     24 C         142.4811  137.3318  155.4601 C.3     1  UNL1        0.1007
     25 C         142.6424  135.8498  155.2937 C.ar    1  UNL1        0.0129
     26 C         142.3713  135.0685  154.0423 C.ar    1  UNL1        0.0176
     27 C         142.6645  133.6247  154.3246 C.ar    1  UNL1        0.0799
     28 N         143.1168  133.5138  155.7506 N.ar    1  UNL1       -0.3038
     29 C         143.1032  134.8890  156.3494 C.ar    1  UNL1        0.0772
     30 C         143.5132  132.2497  156.4540 C.ar    1  UNL1        0.0640
     31 C         144.6542  132.2593  157.4276 C.ar    1  UNL1        0.0175
     32 C         145.0505  130.9952  158.1310 C.ar    1  UNL1        0.0053
     33 C         144.3059  129.7215  157.8610 C.ar    1  UNL1        0.0715
     34 C         143.1648  129.7118  156.8874 C.ar    1  UNL1        0.0053
     35 C         142.7684  130.9760  156.1839 C.ar    1  UNL1        0.0175
     36 C         144.7022  128.4574  158.5644 C.3     1  UNL1        0.4186
     37 F         145.0985  127.1933  159.2680 F       1  UNL1       -0.1659
     38 F         145.3776  127.9741  157.3154 F       1  UNL1       -0.1659
     39 F         144.0267  128.9407  159.8136 F       1  UNL1       -0.1659
@<TRIPOS>BOND
     1     7     8    2
     2     8     9   am
     3     9     1    1
     4     1     2    1
     5     2     3    1
     6     3     4    1
     7     4    24    1
     8    24    25    1
     9    25    26   ar
    10    26    27   ar
    11    27    28   ar
    12    28    30    1
    13    30    31   ar
    14    31    32   ar
    15    32    33   ar
    16    33    36    1
    17    36    37    1
    18    36    38    1
    19    36    39    1
    20    33    34   ar
    21    34    35   ar
    22    28    29   ar
    23     4     5    1
    24     5     6    1
    25     8    10   am
    26    10    11    1
    27    11    12    1
    28    12    13    1
    29    13    14    1
    30    14    17    1
    31    17    18    2
    32    17    19   am
    33    19    20    1
    34    20    21    1
    35    21    22    1
    36    22    23    1
    37    14    15    1
    38     6     1    1
    39    15    10    1
    40    29    25   ar
    41    23    19    1
    42    35    30   ar
    43     9    16    1
@<TRIPOS>MOLECULE
*****
 39 43 0 0 0
SMALL
GASTEIGER

@<TRIPOS>ATOM
      1 C         139.4405  141.2260  160.5969 C.3     1  UNL1        0.0758
      2 C         138.8350  142.5155  160.1275 C.3     1  UNL1        0.0370
      3 C         138.5310  142.7154  158.6723 C.3     1  UNL1        0.0741
      4 N         138.8325  141.6257  157.6866 N.3     1  UNL1       -0.2688
      5 C         139.4380  140.3362  158.1559 C.3     1  UNL1        0.0741
      6 C         139.7420  140.1363  159.6111 C.3     1  UNL1        0.0370
      7 O         137.4927  139.7649  162.3494 O.2     1  UNL1       -0.2526
      8 C         138.7707  140.2955  162.9284 C.2     1  UNL1        0.3039
      9 N         139.7446  141.0260  162.0521 N.am    1  UNL1       -0.2903
     10 N         139.0748  140.0956  164.3836 N.am    1  UNL1       -0.2637
     11 C         138.1009  139.3651  165.2598 C.3     1  UNL1        0.0950
     12 C         138.4050  139.1651  166.7150 C.3     1  UNL1        0.0221
     13 C         139.6830  139.6957  167.2939 C.3     1  UNL1        0.0126
     14 C         140.6569  140.4262  166.4177 C.3     1  UNL1        0.0966
     15 C         140.3528  140.6261  164.9625 C.3     1  UNL1        0.1040
     16 H         140.5834  141.3742  162.4321 H       1  UNL1        0.1509
     17 C         141.9349  140.9568  166.9966 C.2     1  UNL1        0.2268
     18 O         143.2420  140.6668  166.3202 O.2     1  UNL1       -0.2748
     19 N         141.9059  141.7774  168.2518 N.am    1  UNL1       -0.2795
     20 C         143.0963  142.3721  168.9442 C.3     1  UNL1        0.0935
     21 C         142.6075  143.1097  170.1554 C.3     1  UNL1        0.0233
     22 C         141.1150  142.9708  170.2116 C.3     1  UNL1        0.0233
     23 C         140.6814  142.1474  169.0352 C.3     1  UNL1        0.0935
     24 C         138.5284  141.8257  156.2313 C.3     1  UNL1        0.1007
     25 C         137.1271  141.6479  155.7266 C.ar    1  UNL1        0.0129
     26 C         136.5931  142.1422  154.4149 C.ar    1  UNL1        0.0176
     27 C         135.1498  141.7444  154.3226 C.ar    1  UNL1        0.0799
     28 N         134.7917  141.0043  155.5773 N.ar    1  UNL1       -0.3038
     29 C         136.0138  140.9447  156.4450 C.ar    1  UNL1        0.0772
     30 C         133.4476  140.4255  155.9064 C.ar    1  UNL1        0.0640
     31 C         133.3434  139.0283  156.4419 C.ar    1  UNL1        0.0175
     32 C         131.9993  138.4495  156.7710 C.ar    1  UNL1        0.0053
     33 C         130.7594  139.2679  156.5645 C.ar    1  UNL1        0.0715
     34 C         130.8635  140.6651  156.0290 C.ar    1  UNL1        0.0053
     35 C         132.2076  141.2439  155.6999 C.ar    1  UNL1        0.0175
     36 C         129.4153  138.6890  156.8936 C.3     1  UNL1        0.4186
     37 F         128.0711  138.1103  157.2228 F       1  UNL1       -0.1659
     38 F         129.5701  137.6963  155.7799 F       1  UNL1       -0.1659
     39 F         129.2604  139.6818  158.0075 F       1  UNL1       -0.1659
@<TRIPOS>BOND
     1     7     8    2
     2     8     9   am
     3     9     1    1
     4     1     2    1
     5     2     3    1
     6     3     4    1
     7     4    24    1
     8    24    25    1
     9    25    26   ar
    10    26    27   ar
    11    27    28   ar
    12    28    30    1
    13    30    31   ar
    14    31    32   ar
    15    32    33   ar
    16    33    36    1
    17    36    37    1
    18    36    38    1
    19    36    39    1
    20    33    34   ar
    21    34    35   ar
    22    28    29   ar
    23     4     5    1
    24     5     6    1
    25     8    10   am
    26    10    11    1
    27    11    12    1
    28    12    13    1
    29    13    14    1
    30    14    17    1
    31    17    18    2
    32    17    19   am
    33    19    20    1
    34    20    21    1
    35    21    22    1
    36    22    23    1
    37    14    15    1
    38     6     1    1
    39    15    10    1
    40    29    25   ar
    41    23    19    1
    42    35    30   ar
    43     9    16    1
