@<TRIPOS>MOLECULE
*****
 31 34 0 0 0
SMALL
GASTEIGER

@<TRIPOS>ATOM
      1 C         141.3111  143.8852  163.2306 C.3     1  UNL1        0.1166
      2 C         142.0980  143.4467  164.4301 C.ar    1  UNL1       -0.0162
      3 C         141.7202  142.6445  165.6399 C.ar    1  UNL1       -0.0041
      4 C         142.7428  142.3580  166.6991 C.ar    1  UNL1       -0.0003
      5 C         144.1433  142.8739  166.5487 C.ar    1  UNL1       -0.0003
      6 C         144.5211  143.6762  165.3389 C.ar    1  UNL1       -0.0045
      7 C         143.4984  143.9626  164.2796 C.ar    1  UNL1       -0.0240
      8 C         143.5771  144.7198  162.9872 C.3     1  UNL1        0.0464
      9 C         142.2253  144.6720  162.3388 C.3     1  UNL1        0.0888
     10 N         139.4813  142.4188  162.1117 N.am    1  UNL1       -0.3026
     11 C         139.8642  143.5888  162.9690 C.2     1  UNL1        0.2278
     12 O         138.8001  144.4622  163.5644 O.2     1  UNL1       -0.2747
     13 H         140.1798  141.8455  161.7208 H       1  UNL1        0.1495
     14 C         138.0344  142.1224  161.8500 C.3     1  UNL1        0.1067
     15 C         137.2644  141.2502  162.7967 C.3     1  UNL1        0.0937
     16 C         138.2605  140.1628  164.9358 C.3     1  UNL1        0.0897
     17 N         137.9422  140.0946  163.4715 N.3     1  UNL1       -0.2689
     18 C         138.3018  138.8710  162.6820 C.3     1  UNL1        0.0897
     19 N         141.8530  145.3005  161.0288 N.am    1  UNL1       -0.3001
     20 C         141.5965  144.4377  159.8289 C.2     1  UNL1        0.2636
     21 O         141.7125  142.9462  159.9391 O.2     1  UNL1       -0.2685
     22 H         141.7769  146.2794  160.9565 H       1  UNL1        0.1498
     23 C         141.2242  145.0663  158.5188 C.2     1  UNL1        0.1341
     24 C         141.9160  144.8447  157.2064 C.2     1  UNL1        0.0249
     25 C         141.2141  145.6683  156.1676 C.2     1  UNL1        0.0155
     26 C         141.4544  145.8473  154.6979 C.2     1  UNL1        0.0009
     27 C         140.5692  146.7570  153.8986 C.2     1  UNL1       -0.0041
     28 C         139.4437  147.4876  154.5690 C.2     1  UNL1       -0.0198
     29 C         139.2034  147.3085  156.0387 C.3     1  UNL1        0.0717
     30 C         140.0885  146.3989  156.8380 C.2     1  UNL1        0.0635
     31 N         140.0948  146.0268  158.2911 N.2     1  UNL1       -0.2448
@<TRIPOS>BOND
     1    16    17    1
     2    17    18    1
     3    17    15    1
     4    15    14    1
     5    14    10    1
     6    10    11   am
     7    11    12    2
     8     1    11    1
     9     1     2    1
    10     2     3   ar
    11     3     4   ar
    12     4     5   ar
    13     5     6   ar
    14     6     7   ar
    15     7     8    1
    16     8     9    1
    17     9    19    1
    18    19    20   am
    19    20    21    2
    20    20    23    1
    21    23    24    2
    22    24    25    1
    23    25    26    2
    24    26    27    1
    25    27    28    2
    26    28    29    1
    27    29    30    1
    28    30    31    2
    29     9     1    1
    30    31    23    1
    31     7     2   ar
    32    30    25    1
    33    10    13    1
    34    19    22    1
@<TRIPOS>MOLECULE
*****
 31 34 0 0 0
SMALL
GASTEIGER

@<TRIPOS>ATOM
      1 C         140.7829  142.2340  166.0999 C.3     1  UNL1        0.1166
      2 C         141.1949  142.5149  167.5146 C.ar    1  UNL1       -0.0162
      3 C         140.4839  143.1848  168.6528 C.ar    1  UNL1       -0.0041
      4 C         141.1630  143.3247  169.9829 C.ar    1  UNL1       -0.0003
      5 C         142.5531  142.7948  170.1747 C.ar    1  UNL1       -0.0003
      6 C         143.2641  142.1250  169.0365 C.ar    1  UNL1       -0.0045
      7 C         142.5850  141.9850  167.7064 C.ar    1  UNL1       -0.0240
      8 C         143.0321  141.3766  166.4102 C.3     1  UNL1        0.0464
      9 C         141.9183  141.5305  165.4173 C.3     1  UNL1        0.0888
     10 N         139.1427  144.0285  165.1832 N.am    1  UNL1       -0.3026
     11 C         139.4665  142.5935  165.4771 C.2     1  UNL1        0.2278
     12 O         138.4738  141.5183  165.1481 O.2     1  UNL1       -0.2747
     13 H         139.7942  144.7343  165.3991 H       1  UNL1        0.1495
     14 C         137.8263  144.3880  164.5604 C.3     1  UNL1        0.1067
     15 C         137.6652  144.3445  163.0698 C.3     1  UNL1        0.0937
     16 C         139.4025  143.2197  161.4991 C.3     1  UNL1        0.0897
     17 N         138.8701  144.4447  162.1820 N.3     1  UNL1       -0.2689
     18 C         139.5426  145.7697  161.9770 C.3     1  UNL1        0.0897
     19 N         141.9367  141.0630  163.9922 N.am    1  UNL1       -0.3001
     20 C         141.2459  139.7869  163.6125 C.2     1  UNL1        0.2636
     21 O         140.5365  138.9782  164.6580 O.2     1  UNL1       -0.2685
     22 H         142.4022  141.5937  163.3060 H       1  UNL1        0.1498
     23 C         141.2643  139.3193  162.1874 C.2     1  UNL1        0.1341
     24 C         140.0980  139.3203  161.2440 C.2     1  UNL1        0.0249
     25 C         140.5652  138.7703  159.9289 C.2     1  UNL1        0.0155
     26 C         139.8537  138.5358  158.6294 C.2     1  UNL1        0.0009
     27 C         140.5971  137.9605  157.4605 C.2     1  UNL1       -0.0041
     28 C         142.0520  137.6196  157.5912 C.2     1  UNL1       -0.0198
     29 C         142.7635  137.8540  158.8907 C.3     1  UNL1        0.0717
     30 C         142.0201  138.4294  160.0596 C.2     1  UNL1        0.0635
     31 N         142.4521  138.7687  161.4553 N.2     1  UNL1       -0.2448
@<TRIPOS>BOND
     1    16    17    1
     2    17    18    1
     3    17    15    1
     4    15    14    1
     5    14    10    1
     6    10    11   am
     7    11    12    2
     8     1    11    1
     9     1     2    1
    10     2     3   ar
    11     3     4   ar
    12     4     5   ar
    13     5     6   ar
    14     6     7   ar
    15     7     8    1
    16     8     9    1
    17     9    19    1
    18    19    20   am
    19    20    21    2
    20    20    23    1
    21    23    24    2
    22    24    25    1
    23    25    26    2
    24    26    27    1
    25    27    28    2
    26    28    29    1
    27    29    30    1
    28    30    31    2
    29     9     1    1
    30    31    23    1
    31     7     2   ar
    32    30    25    1
    33    10    13    1
    34    19    22    1
@<TRIPOS>MOLECULE
*****
 31 34 0 0 0
SMALL
GASTEIGER

@<TRIPOS>ATOM
      1 C         141.0881  142.3297  166.2814 C.3     1  UNL1        0.1166
      2 C         141.3289  142.4666  167.7556 C.ar    1  UNL1       -0.0162
      3 C         140.3968  142.6999  168.9074 C.ar    1  UNL1       -0.0041
      4 C         140.9381  142.7941  170.3031 C.ar    1  UNL1       -0.0003
      5 C         142.4116  142.6549  170.5470 C.ar    1  UNL1       -0.0003
      6 C         143.3437  142.4216  169.3952 C.ar    1  UNL1       -0.0045
      7 C         142.8023  142.3274  167.9995 C.ar    1  UNL1       -0.0240
      8 C         143.4722  142.1045  166.6760 C.3     1  UNL1        0.0464
      9 C         142.4127  142.1060  165.6141 C.3     1  UNL1        0.0888
     10 N         139.2940  143.6972  164.9923 N.am    1  UNL1       -0.3026
     11 C         139.7564  142.4036  165.5949 C.2     1  UNL1        0.2278
     12 O         138.8871  141.1842  165.5111 O.2     1  UNL1       -0.2747
     13 H         139.8646  144.4976  165.0473 H       1  UNL1        0.1495
     14 C         137.9624  143.7711  164.3058 C.3     1  UNL1        0.1067
     15 C         137.8126  144.5674  163.0435 C.3     1  UNL1        0.0937
     16 C         139.6903  145.7269  161.6724 C.3     1  UNL1        0.0897
     17 N         138.8766  144.5068  161.9880 N.3     1  UNL1       -0.2689
     18 C         139.1270  143.2263  161.2480 C.3     1  UNL1        0.0897
     19 N         142.6383  141.9169  164.1433 N.am    1  UNL1       -0.3001
     20 C         142.5584  143.0924  163.2150 C.2     1  UNL1        0.2636
     21 O         142.2529  144.4571  163.7576 O.2     1  UNL1       -0.2685
     22 H         142.8388  141.0212  163.7872 H       1  UNL1        0.1498
     23 C         142.7840  142.9033  161.7442 C.2     1  UNL1        0.1341
     24 C         143.2361  141.6381  161.0770 C.2     1  UNL1        0.0249
     25 C         143.3286  141.8991  159.6028 C.2     1  UNL1        0.0155
     26 C         143.7214  141.0221  158.4510 C.2     1  UNL1        0.0009
     27 C         143.7193  141.5716  157.0553 C.2     1  UNL1       -0.0041
     28 C         143.3244  142.9979  156.8113 C.2     1  UNL1       -0.0198
     29 C         142.9315  143.8749  157.9631 C.3     1  UNL1        0.0717
     30 C         142.9337  143.3255  159.3588 C.2     1  UNL1        0.0635
     31 N         142.5971  143.9460  160.6823 N.2     1  UNL1       -0.2448
@<TRIPOS>BOND
     1    16    17    1
     2    17    18    1
     3    17    15    1
     4    15    14    1
     5    14    10    1
     6    10    11   am
     7    11    12    2
     8     1    11    1
     9     1     2    1
    10     2     3   ar
    11     3     4   ar
    12     4     5   ar
    13     5     6   ar
    14     6     7   ar
    15     7     8    1
    16     8     9    1
    17     9    19    1
    18    19    20   am
    19    20    21    2
    20    20    23    1
    21    23    24    2
    22    24    25    1
    23    25    26    2
    24    26    27    1
    25    27    28    2
    26    28    29    1
    27    29    30    1
    28    30    31    2
    29     9     1    1
    30    31    23    1
    31     7     2   ar
    32    30    25    1
    33    10    13    1
    34    19    22    1
@<TRIPOS>MOLECULE
*****
 31 34 0 0 0
SMALL
GASTEIGER

@<TRIPOS>ATOM
      1 C         140.5120  141.9020  165.8727 C.3     1  UNL1        0.1166
      2 C         140.3395  141.9491  167.3620 C.ar    1  UNL1       -0.0162
      3 C         140.6499  143.0106  168.3753 C.ar    1  UNL1       -0.0041
      4 C         140.3621  142.7684  169.8273 C.ar    1  UNL1       -0.0003
      5 C         139.7638  141.4647  170.2661 C.ar    1  UNL1       -0.0003
      6 C         139.4534  140.4032  169.2528 C.ar    1  UNL1       -0.0045
      7 C         139.7413  140.6454  167.8007 C.ar    1  UNL1       -0.0240
      8 C         139.5440  139.7926  166.5826 C.3     1  UNL1        0.0464
      9 C         140.0203  140.5693  165.3910 C.3     1  UNL1        0.0888
     10 N         142.5171  142.9532  164.5979 N.am    1  UNL1       -0.3026
     11 C         141.0769  142.9957  165.0156 C.2     1  UNL1        0.2278
     12 O         140.2019  144.1320  164.5761 O.2     1  UNL1       -0.2747
     13 H         143.0914  142.2074  164.8863 H       1  UNL1        0.1495
     14 C         143.0820  144.0469  163.7408 C.3     1  UNL1        0.1067
     15 C         144.3039  143.7923  162.9089 C.3     1  UNL1        0.0937
     16 C         144.3720  141.6101  161.5004 C.3     1  UNL1        0.0897
     17 N         144.7966  142.3896  162.7097 N.3     1  UNL1       -0.2689
     18 C         145.7138  141.7663  163.7197 C.3     1  UNL1        0.0897
     19 N         140.0073  140.0962  163.9676 N.am    1  UNL1       -0.3001
     20 C         141.2929  139.7293  163.2874 C.2     1  UNL1        0.2636
     21 O         142.5915  139.8355  164.0306 O.2     1  UNL1       -0.2685
     22 H         139.1550  140.0265  163.4798 H       1  UNL1        0.1498
     23 C         141.2798  139.2563  161.8640 C.2     1  UNL1        0.1341
     24 C         140.1047  139.2958  160.9324 C.2     1  UNL1        0.0249
     25 C         140.5383  138.7246  159.6149 C.2     1  UNL1        0.0155
     26 C         139.8055  138.5112  158.3236 C.2     1  UNL1        0.0009
     27 C         140.5157  137.9053  157.1496 C.2     1  UNL1       -0.0041
     28 C         141.9587  137.5128  157.2668 C.2     1  UNL1       -0.0198
     29 C         142.6915  137.7262  158.5581 C.3     1  UNL1        0.0717
     30 C         141.9813  138.3321  159.7322 C.2     1  UNL1        0.0635
     31 N         142.4396  138.6607  161.1221 N.2     1  UNL1       -0.2448
@<TRIPOS>BOND
     1    16    17    1
     2    17    18    1
     3    17    15    1
     4    15    14    1
     5    14    10    1
     6    10    11   am
     7    11    12    2
     8     1    11    1
     9     1     2    1
    10     2     3   ar
    11     3     4   ar
    12     4     5   ar
    13     5     6   ar
    14     6     7   ar
    15     7     8    1
    16     8     9    1
    17     9    19    1
    18    19    20   am
    19    20    21    2
    20    20    23    1
    21    23    24    2
    22    24    25    1
    23    25    26    2
    24    26    27    1
    25    27    28    2
    26    28    29    1
    27    29    30    1
    28    30    31    2
    29     9     1    1
    30    31    23    1
    31     7     2   ar
    32    30    25    1
    33    10    13    1
    34    19    22    1
@<TRIPOS>MOLECULE
*****
 31 34 0 0 0
SMALL
GASTEIGER

@<TRIPOS>ATOM
      1 C         140.0231  140.8020  166.2764 C.3     1  UNL1        0.1166
      2 C         140.0524  141.0276  167.7590 C.ar    1  UNL1       -0.0162
      3 C         139.9049  140.0894  168.9201 C.ar    1  UNL1       -0.0041
      4 C         139.9803  140.6148  170.3230 C.ar    1  UNL1       -0.0003
      5 C         140.2031  142.0783  170.5649 C.ar    1  UNL1       -0.0003
      6 C         140.3506  143.0164  169.4038 C.ar    1  UNL1       -0.0045
      7 C         140.2752  142.4911  168.0009 C.ar    1  UNL1       -0.0240
      8 C         140.3836  143.1699  166.6677 C.3     1  UNL1        0.0464
      9 C         140.2278  142.1261  165.6019 C.3     1  UNL1        0.0888
     10 N         141.0116  138.6561  165.1955 N.am    1  UNL1       -0.3026
     11 C         139.8240  139.4837  165.5889 C.2     1  UNL1        0.2278
     12 O         138.4375  138.9930  165.2948 O.2     1  UNL1       -0.2747
     13 H         141.9217  138.9782  165.3885 H       1  UNL1        0.1495
     14 C         140.8126  137.3379  164.5080 C.3     1  UNL1        0.1067
     15 C         140.9025  137.2505  163.0133 C.3     1  UNL1        0.0937
     16 C         138.6809  138.0528  161.9310 C.3     1  UNL1        0.0897
     17 N         140.1532  138.2291  162.1584 N.3     1  UNL1       -0.2689
     18 C         140.8760  139.3841  161.5311 C.3     1  UNL1        0.0897
     19 N         140.2694  142.3644  164.1215 N.am    1  UNL1       -0.3001
     20 C         138.9929  142.4360  163.3372 C.2     1  UNL1        0.2636
     21 O         137.6746  142.2694  164.0333 O.2     1  UNL1       -0.2685
     22 H         141.1346  142.4738  163.6647 H       1  UNL1        0.1498
     23 C         139.0345  142.6743  161.8569 C.2     1  UNL1        0.1341
     24 C         139.8796  143.6932  161.1512 C.2     1  UNL1        0.0249
     25 C         139.6057  143.5841  159.6805 C.2     1  UNL1        0.0155
     26 C         140.1489  144.3336  158.5001 C.2     1  UNL1        0.0009
     27 C         139.6777  143.9969  157.1165 C.2     1  UNL1       -0.0041
     28 C         138.6634  142.9108  156.9131 C.2     1  UNL1       -0.0198
     29 C         138.1202  142.1613  158.0934 C.3     1  UNL1        0.0717
     30 C         138.5913  142.4980  159.4771 C.2     1  UNL1        0.0635
     31 N         138.2383  141.9357  160.8222 N.2     1  UNL1       -0.2448
@<TRIPOS>BOND
     1    16    17    1
     2    17    18    1
     3    17    15    1
     4    15    14    1
     5    14    10    1
     6    10    11   am
     7    11    12    2
     8     1    11    1
     9     1     2    1
    10     2     3   ar
    11     3     4   ar
    12     4     5   ar
    13     5     6   ar
    14     6     7   ar
    15     7     8    1
    16     8     9    1
    17     9    19    1
    18    19    20   am
    19    20    21    2
    20    20    23    1
    21    23    24    2
    22    24    25    1
    23    25    26    2
    24    26    27    1
    25    27    28    2
    26    28    29    1
    27    29    30    1
    28    30    31    2
    29     9     1    1
    30    31    23    1
    31     7     2   ar
    32    30    25    1
    33    10    13    1
    34    19    22    1
@<TRIPOS>MOLECULE
*****
 31 34 0 0 0
SMALL
GASTEIGER

@<TRIPOS>ATOM
      1 C         141.9319  140.3955  166.0154 C.3     1  UNL1        0.1166
      2 C         141.7366  140.0894  167.4708 C.ar    1  UNL1       -0.0162
      3 C         142.6579  139.5219  168.5095 C.ar    1  UNL1       -0.0041
      4 C         142.1725  139.3240  169.9149 C.ar    1  UNL1       -0.0003
      5 C         140.7658  139.6937  170.2816 C.ar    1  UNL1       -0.0003
      6 C         139.8444  140.2612  169.2428 C.ar    1  UNL1       -0.0045
      7 C         140.3298  140.4591  167.8375 C.ar    1  UNL1       -0.0240
      8 C         139.6558  140.9936  166.6087 C.3     1  UNL1        0.0464
      9 C         140.6459  140.9543  165.4825 C.3     1  UNL1        0.0888
     10 N         144.0690  141.3475  164.8855 N.am    1  UNL1       -0.3026
     11 C         143.1920  140.1805  165.2306 C.2     1  UNL1        0.2278
     12 O         143.5752  138.7986  164.7909 O.2     1  UNL1       -0.2747
     13 H         143.8175  142.2546  165.1740 H       1  UNL1        0.1495
     14 C         145.3291  141.1325  164.1007 C.3     1  UNL1        0.1067
     15 C         145.5121  141.8106  162.7753 C.3     1  UNL1        0.0937
     16 C         144.1075  140.0738  161.4483 C.3     1  UNL1        0.0897
     17 N         144.6009  141.4786  161.6310 N.3     1  UNL1       -0.2689
     18 C         144.1832  142.5513  160.6693 C.3     1  UNL1        0.0897
     19 N         140.3942  141.3963  164.0714 N.am    1  UNL1       -0.3001
     20 C         140.9836  142.6819  163.5717 C.2     1  UNL1        0.2636
     21 O         141.8248  143.5256  164.4831 O.2     1  UNL1       -0.2685
     22 H         139.8421  140.8425  163.4732 H       1  UNL1        0.1498
     23 C         140.7320  143.1238  162.1605 C.2     1  UNL1        0.1341
     24 C         141.1106  144.4503  161.5712 C.2     1  UNL1        0.0249
     25 C         140.6700  144.4631  160.1374 C.2     1  UNL1        0.0155
     26 C         140.7775  145.5051  159.0637 C.2     1  UNL1        0.0009
     27 C         140.2341  145.2286  157.6932 C.2     1  UNL1       -0.0041
     28 C         139.5833  143.9101  157.3964 C.2     1  UNL1       -0.0198
     29 C         139.4759  142.8682  158.4701 C.3     1  UNL1        0.0717
     30 C         140.0192  143.1447  159.8405 C.2     1  UNL1        0.0635
     31 N         140.0575  142.3169  161.0909 N.2     1  UNL1       -0.2448
@<TRIPOS>BOND
     1    16    17    1
     2    17    18    1
     3    17    15    1
     4    15    14    1
     5    14    10    1
     6    10    11   am
     7    11    12    2
     8     1    11    1
     9     1     2    1
    10     2     3   ar
    11     3     4   ar
    12     4     5   ar
    13     5     6   ar
    14     6     7   ar
    15     7     8    1
    16     8     9    1
    17     9    19    1
    18    19    20   am
    19    20    21    2
    20    20    23    1
    21    23    24    2
    22    24    25    1
    23    25    26    2
    24    26    27    1
    25    27    28    2
    26    28    29    1
    27    29    30    1
    28    30    31    2
    29     9     1    1
    30    31    23    1
    31     7     2   ar
    32    30    25    1
    33    10    13    1
    34    19    22    1
@<TRIPOS>MOLECULE
*****
 31 34 0 0 0
SMALL
GASTEIGER

@<TRIPOS>ATOM
      1 C         139.1185  142.5452  161.5281 C.3     1  UNL1        0.1166
      2 C         139.3009  143.0868  160.1412 C.ar    1  UNL1       -0.0162
      3 C         138.7967  142.6213  158.8075 C.ar    1  UNL1       -0.0041
      4 C         139.1503  143.3827  157.5645 C.ar    1  UNL1       -0.0003
      5 C         140.0083  144.6098  157.6553 C.ar    1  UNL1       -0.0003
      6 C         140.5126  145.0754  158.9890 C.ar    1  UNL1       -0.0045
      7 C         140.1589  144.3139  160.2320 C.ar    1  UNL1       -0.0240
      8 C         140.5067  144.5306  161.6749 C.3     1  UNL1        0.0464
      9 C         139.8637  143.4375  162.4760 C.3     1  UNL1        0.0888
     10 N         138.8917  139.9594  161.6404 N.am    1  UNL1       -0.3026
     11 C         138.3294  141.3254  161.9015 C.2     1  UNL1        0.2278
     12 O         136.9781  141.4714  162.5359 O.2     1  UNL1       -0.2747
     13 H         139.7786  139.8635  161.2239 H       1  UNL1        0.1495
     14 C         138.1026  138.7396  162.0137 C.3     1  UNL1        0.1067
     15 C         138.6857  137.7286  162.9559 C.3     1  UNL1        0.0937
     16 C         138.4303  139.0706  165.1659 C.3     1  UNL1        0.0897
     17 N         139.2369  138.1678  164.2800 N.3     1  UNL1       -0.2689
     18 C         140.5945  137.7044  164.7183 C.3     1  UNL1        0.0897
     19 N         139.9506  143.2666  163.9637 N.am    1  UNL1       -0.3001
     20 C         140.6573  142.0766  164.5419 C.2     1  UNL1        0.2636
     21 O         141.2770  141.0573  163.6325 O.2     1  UNL1       -0.2685
     22 H         139.5439  143.9356  164.5606 H       1  UNL1        0.1498
     23 C         140.7442  141.9058  166.0296 C.2     1  UNL1        0.1341
     24 C         140.3452  142.9217  167.0586 C.2     1  UNL1        0.0249
     25 C         140.5998  142.3328  168.4145 C.2     1  UNL1        0.0155
     26 C         140.3970  142.8748  169.7983 C.2     1  UNL1        0.0009
     27 C         140.7504  142.0369  170.9912 C.2     1  UNL1       -0.0041
     28 C         141.3068  140.6571  170.8002 C.2     1  UNL1       -0.0198
     29 C         141.5096  140.1151  169.4164 C.3     1  UNL1        0.0717
     30 C         141.1562  140.9529  168.2235 C.2     1  UNL1        0.0635
     31 N         141.2454  140.6890  166.7496 N.2     1  UNL1       -0.2448
@<TRIPOS>BOND
     1    16    17    1
     2    17    18    1
     3    17    15    1
     4    15    14    1
     5    14    10    1
     6    10    11   am
     7    11    12    2
     8     1    11    1
     9     1     2    1
    10     2     3   ar
    11     3     4   ar
    12     4     5   ar
    13     5     6   ar
    14     6     7   ar
    15     7     8    1
    16     8     9    1
    17     9    19    1
    18    19    20   am
    19    20    21    2
    20    20    23    1
    21    23    24    2
    22    24    25    1
    23    25    26    2
    24    26    27    1
    25    27    28    2
    26    28    29    1
    27    29    30    1
    28    30    31    2
    29     9     1    1
    30    31    23    1
    31     7     2   ar
    32    30    25    1
    33    10    13    1
    34    19    22    1
@<TRIPOS>MOLECULE
*****
 31 34 0 0 0
SMALL
GASTEIGER

@<TRIPOS>ATOM
      1 C         142.8253  141.5094  165.9888 C.3     1  UNL1        0.1166
      2 C         142.8664  141.3250  167.4768 C.ar    1  UNL1       -0.0162
      3 C         143.1048  142.2885  168.6014 C.ar    1  UNL1       -0.0041
      4 C         143.0860  141.8040  170.0208 C.ar    1  UNL1       -0.0003
      5 C         142.8287  140.3559  170.3157 C.ar    1  UNL1       -0.0003
      6 C         142.5903  139.3924  169.1911 C.ar    1  UNL1       -0.0045
      7 C         142.6091  139.8769  167.7717 C.ar    1  UNL1       -0.0240
      8 C         142.4091  139.1665  166.4658 C.3     1  UNL1        0.0464
      9 C         142.5427  140.1754  165.3639 C.3     1  UNL1        0.0888
     10 N         141.8525  143.5403  164.6928 N.am    1  UNL1       -0.3026
     11 C         143.0308  142.8012  165.2545 C.2     1  UNL1        0.2278
     12 O         144.4145  143.3539  165.0818 O.2     1  UNL1       -0.2747
     13 H         140.9443  143.1776  164.8062 H       1  UNL1        0.1495
     14 C         142.0580  144.8321  163.9586 C.3     1  UNL1        0.1067
     15 C         141.1050  145.2377  162.8735 C.3     1  UNL1        0.0937
     16 C         140.5935  145.4651  160.3364 C.3     1  UNL1        0.0897
     17 N         141.3683  144.8315  161.4538 N.3     1  UNL1       -0.2689
     18 C         142.4063  143.7918  161.1513 C.3     1  UNL1        0.0897
     19 N         142.4159  139.8989  163.8951 N.am    1  UNL1       -0.3001
     20 C         143.6430  139.8395  163.0344 C.2     1  UNL1        0.2636
     21 O         144.9969  140.0567  163.6426 O.2     1  UNL1       -0.2685
     22 H         141.5273  139.7563  163.4959 H       1  UNL1        0.1498
     23 C         143.5162  139.5630  161.5656 C.2     1  UNL1        0.1341
     24 C         143.9118  140.4919  160.4562 C.2     1  UNL1        0.0249
     25 C         143.6117  139.8119  159.1532 C.2     1  UNL1        0.0155
     26 C         143.7924  140.2469  157.7291 C.2     1  UNL1        0.0009
     27 C         143.3921  139.3330  156.6092 C.2     1  UNL1       -0.0041
     28 C         142.8110  137.9839  156.9134 C.2     1  UNL1       -0.0198
     29 C         142.6303  137.5489  158.3374 C.3     1  UNL1        0.0717
     30 C         143.0306  138.4629  159.4574 C.2     1  UNL1        0.0635
     31 N         142.9716  138.3091  160.9483 N.2     1  UNL1       -0.2448
@<TRIPOS>BOND
     1    16    17    1
     2    17    18    1
     3    17    15    1
     4    15    14    1
     5    14    10    1
     6    10    11   am
     7    11    12    2
     8     1    11    1
     9     1     2    1
    10     2     3   ar
    11     3     4   ar
    12     4     5   ar
    13     5     6   ar
    14     6     7   ar
    15     7     8    1
    16     8     9    1
    17     9    19    1
    18    19    20   am
    19    20    21    2
    20    20    23    1
    21    23    24    2
    22    24    25    1
    23    25    26    2
    24    26    27    1
    25    27    28    2
    26    28    29    1
    27    29    30    1
    28    30    31    2
    29     9     1    1
    30    31    23    1
    31     7     2   ar
    32    30    25    1
    33    10    13    1
    34    19    22    1
@<TRIPOS>MOLECULE
*****
 31 34 0 0 0
SMALL
GASTEIGER

@<TRIPOS>ATOM
      1 C         140.3849  142.0719  165.9875 C.3     1  UNL1        0.1166
      2 C         140.2504  142.0726  167.4815 C.ar    1  UNL1       -0.0162
      3 C         140.4822  143.1399  168.5096 C.ar    1  UNL1       -0.0041
      4 C         140.2606  142.8421  169.9629 C.ar    1  UNL1       -0.0003
      5 C         139.8072  141.4770  170.3881 C.ar    1  UNL1       -0.0003
      6 C         139.5754  140.4096  169.3600 C.ar    1  UNL1       -0.0045
      7 C         139.7970  140.7075  167.9067 C.ar    1  UNL1       -0.0240
      8 C         139.6513  139.8631  166.6755 C.3     1  UNL1        0.0464
      9 C         140.0146  140.7063  165.4894 C.3     1  UNL1        0.0888
     10 N         142.2006  143.2722  164.5689 N.am    1  UNL1       -0.3026
     11 C         140.8143  143.2330  165.1404 C.2     1  UNL1        0.2278
     12 O         139.8575  144.3547  164.8648 O.2     1  UNL1       -0.2747
     13 H         142.8287  142.5360  164.7497 H       1  UNL1        0.1495
     14 C         142.6300  144.4333  163.7218 C.3     1  UNL1        0.1067
     15 C         142.4459  144.3847  162.2340 C.3     1  UNL1        0.0937
     16 C         140.4369  142.9691  161.3910 C.3     1  UNL1        0.0897
     17 N         141.0659  144.3059  161.6513 N.3     1  UNL1       -0.2689
     18 C         140.3149  145.5637  161.3289 C.3     1  UNL1        0.0897
     19 N         140.0088  140.2621  164.0567 N.am    1  UNL1       -0.3001
     20 C         141.2501  139.6820  163.4463 C.2     1  UNL1        0.2636
     21 O         142.4973  139.5462  164.2685 O.2     1  UNL1       -0.2685
     22 H         139.1902  140.3512  163.5171 H       1  UNL1        0.1498
     23 C         141.2442  139.2377  162.0136 C.2     1  UNL1        0.1341
     24 C         142.4170  138.6898  161.2555 C.2     1  UNL1        0.0249
     25 C         141.9620  138.3768  159.8608 C.2     1  UNL1        0.0155
     26 C         142.6839  137.8149  158.6721 C.2     1  UNL1        0.0009
     27 C         141.9519  137.6073  157.3794 C.2     1  UNL1       -0.0041
     28 C         140.4980  137.9617  157.2755 C.2     1  UNL1       -0.0198
     29 C         139.7762  138.5237  158.4642 C.3     1  UNL1        0.0717
     30 C         140.5082  138.7312  159.7569 C.2     1  UNL1        0.0635
     31 N         140.0646  139.2633  161.0874 N.2     1  UNL1       -0.2448
@<TRIPOS>BOND
     1    16    17    1
     2    17    18    1
     3    17    15    1
     4    15    14    1
     5    14    10    1
     6    10    11   am
     7    11    12    2
     8     1    11    1
     9     1     2    1
    10     2     3   ar
    11     3     4   ar
    12     4     5   ar
    13     5     6   ar
    14     6     7   ar
    15     7     8    1
    16     8     9    1
    17     9    19    1
    18    19    20   am
    19    20    21    2
    20    20    23    1
    21    23    24    2
    22    24    25    1
    23    25    26    2
    24    26    27    1
    25    27    28    2
    26    28    29    1
    27    29    30    1
    28    30    31    2
    29     9     1    1
    30    31    23    1
    31     7     2   ar
    32    30    25    1
    33    10    13    1
    34    19    22    1
