@<TRIPOS>MOLECULE
*****
 39 43 0 0 0
SMALL
GASTEIGER

@<TRIPOS>ATOM
      1 C         139.9864  142.8007  160.1808 C.3     1  UNL1        0.0080
      2 C         139.8722  141.4400  160.8018 C.3     1  UNL1        0.0177
      3 C         140.0760  141.2698  162.2780 C.3     1  UNL1        0.0721
      4 N         140.3940  142.4602  163.1334 N.3     1  UNL1       -0.2736
      5 C         140.5082  143.8209  162.5126 C.3     1  UNL1        0.0776
      6 C         140.3044  143.9911  161.0362 C.3     1  UNL1        0.0525
      7 C         140.5978  142.2900  164.6097 C.3     1  UNL1        0.0582
      8 C         139.8273  142.6740  165.8381 C.3     1  UNL1        0.0204
      9 C         140.8861  142.0493  166.6976 C.3     1  UNL1        0.0274
     10 C         141.6566  141.6653  165.4693 C.3     1  UNL1        0.0204
     11 C         141.0899  141.8791  168.1739 C.ar    1  UNL1        0.0095
     12 C         142.0647  142.7560  168.9024 C.ar    1  UNL1        0.0277
     13 C         142.2685  142.5858  170.3788 C.ar    1  UNL1        0.1422
     14 F         143.2433  143.4627  171.1073 F       1  UNL1       -0.2041
     15 C         141.4976  141.5387  171.1265 C.ar    1  UNL1        0.0616
     16 C         140.5227  140.6617  170.3979 C.ar    1  UNL1        0.1693
     17 F         139.7518  139.6146  171.1457 F       1  UNL1       -0.2017
     18 C         140.3189  140.8320  168.9217 C.ar    1  UNL1        0.1635
     19 F         139.3441  139.9550  168.1932 F       1  UNL1       -0.2021
     20 C         140.4186  145.3518  160.4153 C.2     1  UNL1        0.0513
     21 O         141.5603  145.6620  159.4933 O.co2   1  UNL1       -0.5491
     22 O         139.3911  146.4023  160.7165 O.co2   1  UNL1       -0.5491
     23 C         139.7825  142.9709  158.7045 C.3     1  UNL1        0.0033
     24 C         140.8627  142.5642  157.7465 C.3     1  UNL1        0.0338
     25 C         142.2979  142.5826  158.1825 C.3     1  UNL1        0.1328
     26 O         143.1751  143.7459  157.8258 O.3     1  UNL1       -0.3801
     27 H         142.6627  144.3931  157.3165 H       1  UNL1        0.2108
     28 C         144.2894  143.3482  162.1445 C.ar    1  UNL1        0.1388
     29 C         144.8473  142.2035  162.9371 C.ar    1  UNL1        0.0384
     30 C         144.7412  140.8035  162.4091 C.ar    1  UNL1        0.0222
     31 C         144.0774  140.5483  161.0884 C.ar    1  UNL1        0.0813
     32 N         143.9714  139.1483  160.5604 N.ar    1  UNL1       -0.2439
     33 C         143.3076  138.8931  159.2398 C.ar    1  UNL1        0.0986
     34 C         142.7497  140.0379  158.4471 C.ar    1  UNL1        0.0187
     35 C         142.8557  141.4379  158.9751 C.ar    1  UNL1        0.0073
     36 C         143.5196  141.6930  160.2958 C.ar    1  UNL1        0.0190
     37 C         143.6256  143.0930  160.8239 C.ar    1  UNL1        0.0382
     38 C         143.6758  145.1314  163.9316 C.3     1  UNL1        0.2525
     39 O         144.3954  144.7482  162.6725 O.3     1  UNL1       -0.4714
@<TRIPOS>UNITY_ATOM_ATTR
21 1
charge -1
@<TRIPOS>BOND
     1    38    39    1
     2    39    28    1
     3    28    29   ar
     4    29    30   ar
     5    30    31   ar
     6    31    32   ar
     7    32    33   ar
     8    33    34   ar
     9    34    35   ar
    10    35    25    1
    11    25    26    1
    12    25    24    1
    13    24    23    1
    14     1    23    1
    15     1     2    1
    16     2     3    1
    17     3     4    1
    18     4     7    1
    19     7     8    1
    20     8     9    1
    21     9    11    1
    22    11    12   ar
    23    12    13   ar
    24    13    14    1
    25    13    15   ar
    26    15    16   ar
    27    16    17    1
    28    16    18   ar
    29    18    19    1
    30     9    10    1
    31     4     5    1
    32     5     6    1
    33     6    20    1
    34    20    21   ar
    35    20    22   ar
    36    35    36   ar
    37    36    37   ar
    38    37    28   ar
    39    36    31   ar
    40     6     1    1
    41    10     7    1
    42    18    11   ar
    43    26    27    1
@<TRIPOS>MOLECULE
*****
 39 43 0 0 0
SMALL
GASTEIGER

@<TRIPOS>ATOM
      1 C         143.5627  141.7797  164.2692 C.3     1  UNL1        0.0080
      2 C         143.5962  140.2804  164.3007 C.3     1  UNL1        0.0177
      3 C         143.2867  139.4970  163.0596 C.3     1  UNL1        0.0721
      4 N         142.9436  140.2129  161.7869 N.3     1  UNL1       -0.2736
      5 C         142.9101  141.7122  161.7553 C.3     1  UNL1        0.0776
      6 C         143.2196  142.4956  162.9965 C.3     1  UNL1        0.0525
      7 C         142.6341  139.4295  160.5457 C.3     1  UNL1        0.0582
      8 C         142.9653  138.0531  160.0500 C.3     1  UNL1        0.0204
      9 C         142.1964  138.3216  158.7904 C.3     1  UNL1        0.0274
     10 C         141.8652  139.6981  159.2861 C.3     1  UNL1        0.0204
     11 C         141.8869  137.5382  157.5492 C.ar    1  UNL1        0.0095
     12 C         142.9738  136.7719  156.8555 C.ar    1  UNL1        0.0277
     13 C         142.6643  135.9884  155.6143 C.ar    1  UNL1        0.1422
     14 F         143.7512  135.2220  154.9206 F       1  UNL1       -0.2041
     15 C         141.2679  135.9715  155.0669 C.ar    1  UNL1        0.0616
     16 C         140.1809  136.7379  155.7606 C.ar    1  UNL1        0.1693
     17 F         138.7845  136.7209  155.2131 F       1  UNL1       -0.2017
     18 C         140.4905  137.5213  157.0018 C.ar    1  UNL1        0.1635
     19 F         139.4036  138.2876  157.6954 F       1  UNL1       -0.2021
     20 C         143.1861  143.9949  162.9649 C.2     1  UNL1        0.0513
     21 O         144.4050  144.7637  162.5488 O.co2   1  UNL1       -0.5491
     22 O         141.9336  144.7253  163.3494 O.co2   1  UNL1       -0.5491
     23 C         143.8722  142.5631  165.5103 C.3     1  UNL1        0.0033
     24 C         142.9872  142.4399  166.7151 C.3     1  UNL1        0.0338
     25 C         141.4972  142.5231  166.5630 C.3     1  UNL1        0.1328
     26 O         140.8928  143.5458  165.6472 O.3     1  UNL1       -0.3801
     27 H         141.5987  144.0677  165.2346 H       1  UNL1        0.2108
     28 C         139.3284  139.2224  164.4063 C.ar    1  UNL1        0.1388
     29 C         138.4429  138.2828  165.1699 C.ar    1  UNL1        0.0384
     30 C         138.2803  138.4435  166.6523 C.ar    1  UNL1        0.0222
     31 C         139.0033  139.5437  167.3712 C.ar    1  UNL1        0.0813
     32 N         138.8407  139.7043  168.8537 N.ar    1  UNL1       -0.2439
     33 C         139.5636  140.8046  169.5726 C.ar    1  UNL1        0.0986
     34 C         140.4492  141.7442  168.8090 C.ar    1  UNL1        0.0187
     35 C         140.6118  141.5835  167.3266 C.ar    1  UNL1        0.0073
     36 C         139.8888  140.4832  166.6077 C.ar    1  UNL1        0.0190
     37 C         140.0513  140.3226  165.1252 C.ar    1  UNL1        0.0382
     38 C         139.9647  137.7556  162.3584 C.3     1  UNL1        0.2525
     39 O         139.4909  139.0617  162.9238 O.3     1  UNL1       -0.4714
@<TRIPOS>UNITY_ATOM_ATTR
21 1
charge -1
@<TRIPOS>BOND
     1    38    39    1
     2    39    28    1
     3    28    29   ar
     4    29    30   ar
     5    30    31   ar
     6    31    32   ar
     7    32    33   ar
     8    33    34   ar
     9    34    35   ar
    10    35    25    1
    11    25    26    1
    12    25    24    1
    13    24    23    1
    14     1    23    1
    15     1     2    1
    16     2     3    1
    17     3     4    1
    18     4     7    1
    19     7     8    1
    20     8     9    1
    21     9    11    1
    22    11    12   ar
    23    12    13   ar
    24    13    14    1
    25    13    15   ar
    26    15    16   ar
    27    16    17    1
    28    16    18   ar
    29    18    19    1
    30     9    10    1
    31     4     5    1
    32     5     6    1
    33     6    20    1
    34    20    21   ar
    35    20    22   ar
    36    35    36   ar
    37    36    37   ar
    38    37    28   ar
    39    36    31   ar
    40     6     1    1
    41    10     7    1
    42    18    11   ar
    43    26    27    1
@<TRIPOS>MOLECULE
*****
 39 43 0 0 0
SMALL
GASTEIGER

@<TRIPOS>ATOM
      1 C         139.7762  142.6578  159.8940 C.3     1  UNL1        0.0080
      2 C         139.5573  141.3084  160.5116 C.3     1  UNL1        0.0177
      3 C         139.9322  141.0695  161.9442 C.3     1  UNL1        0.0721
      4 N         140.5260  142.1799  162.7593 N.3     1  UNL1       -0.2736
      5 C         140.7449  143.5292  162.1418 C.3     1  UNL1        0.0776
      6 C         140.3700  143.7682  160.7092 C.3     1  UNL1        0.0525
      7 C         140.9009  141.9410  164.1919 C.3     1  UNL1        0.0582
      8 C         140.5572  142.5888  165.5004 C.3     1  UNL1        0.0204
      9 C         141.4310  141.6031  166.2180 C.3     1  UNL1        0.0274
     10 C         141.7747  140.9553  164.9094 C.3     1  UNL1        0.0204
     11 C         141.8059  141.3642  167.6506 C.ar    1  UNL1        0.0095
     12 C         140.9480  140.4878  168.5141 C.ar    1  UNL1        0.0277
     13 C         141.3228  140.2488  169.9468 C.ar    1  UNL1        0.1422
     14 F         140.4649  139.3724  170.8104 F       1  UNL1       -0.2041
     15 C         142.5557  140.8863  170.5158 C.ar    1  UNL1        0.0616
     16 C         143.4136  141.7627  169.6521 C.ar    1  UNL1        0.1693
     17 F         144.6465  142.4002  170.2211 F       1  UNL1       -0.2017
     18 C         143.0388  142.0016  168.2196 C.ar    1  UNL1        0.1635
     19 F         143.8967  142.8780  167.3560 F       1  UNL1       -0.2021
     20 C         140.5889  145.1175  160.0917 C.2     1  UNL1        0.0513
     21 O         141.8292  145.3837  159.2912 O.co2   1  UNL1       -0.5491
     22 O         139.5675  146.2007  160.2747 O.co2   1  UNL1       -0.5491
     23 C         139.4013  142.8967  158.4615 C.3     1  UNL1        0.0033
     24 C         140.3386  142.4903  157.3632 C.3     1  UNL1        0.0338
     25 C         141.7701  142.1713  157.6785 C.3     1  UNL1        0.1328
     26 O         142.7948  143.2665  157.7022 O.3     1  UNL1       -0.3801
     27 H         142.3687  144.1126  157.4936 H       1  UNL1        0.2108
     28 C         143.8882  141.1869  161.5248 C.ar    1  UNL1        0.1388
     29 C         144.2948  139.7729  161.8164 C.ar    1  UNL1        0.0384
     30 C         143.9955  138.6869  160.8259 C.ar    1  UNL1        0.0222
     31 C         143.2894  139.0151  159.5438 C.ar    1  UNL1        0.0813
     32 N         142.9900  137.9291  158.5532 N.ar    1  UNL1       -0.2439
     33 C         142.2840  138.2572  157.2711 C.ar    1  UNL1        0.0986
     34 C         141.8773  139.6714  156.9795 C.ar    1  UNL1        0.0187
     35 C         142.1767  140.7573  157.9700 C.ar    1  UNL1        0.0073
     36 C         142.8828  140.4291  159.2522 C.ar    1  UNL1        0.0190
     37 C         143.1822  141.5150  160.2427 C.ar    1  UNL1        0.0382
     38 C         145.3244  142.1146  163.4809 C.3     1  UNL1        0.2525
     39 O         144.1876  142.2728  162.5153 O.3     1  UNL1       -0.4714
@<TRIPOS>UNITY_ATOM_ATTR
21 1
charge -1
@<TRIPOS>BOND
     1    38    39    1
     2    39    28    1
     3    28    29   ar
     4    29    30   ar
     5    30    31   ar
     6    31    32   ar
     7    32    33   ar
     8    33    34   ar
     9    34    35   ar
    10    35    25    1
    11    25    26    1
    12    25    24    1
    13    24    23    1
    14     1    23    1
    15     1     2    1
    16     2     3    1
    17     3     4    1
    18     4     7    1
    19     7     8    1
    20     8     9    1
    21     9    11    1
    22    11    12   ar
    23    12    13   ar
    24    13    14    1
    25    13    15   ar
    26    15    16   ar
    27    16    17    1
    28    16    18   ar
    29    18    19    1
    30     9    10    1
    31     4     5    1
    32     5     6    1
    33     6    20    1
    34    20    21   ar
    35    20    22   ar
    36    35    36   ar
    37    36    37   ar
    38    37    28   ar
    39    36    31   ar
    40     6     1    1
    41    10     7    1
    42    18    11   ar
    43    26    27    1
@<TRIPOS>MOLECULE
*****
 39 43 0 0 0
SMALL
GASTEIGER

@<TRIPOS>ATOM
      1 C         142.6609  138.6456  159.5034 C.3     1  UNL1        0.0080
      2 C         143.7171  138.2505  160.4926 C.3     1  UNL1        0.0177
      3 C         143.4800  138.4453  161.9609 C.3     1  UNL1        0.0721
      4 N         142.1868  139.0352  162.4400 N.3     1  UNL1       -0.2736
      5 C         141.1307  139.4303  161.4509 C.3     1  UNL1        0.0776
      6 C         141.3677  139.2355  159.9826 C.3     1  UNL1        0.0525
      7 C         141.9498  139.2299  163.9083 C.3     1  UNL1        0.0582
      8 C         141.6981  140.4139  164.7942 C.3     1  UNL1        0.0204
      9 C         141.6145  139.5054  165.9848 C.3     1  UNL1        0.0274
     10 C         141.8661  138.3214  165.0989 C.3     1  UNL1        0.0204
     11 C         141.3774  139.7002  167.4531 C.ar    1  UNL1        0.0095
     12 C         142.5199  139.5883  168.4185 C.ar    1  UNL1        0.0277
     13 C         142.2829  139.7831  169.8869 C.ar    1  UNL1        0.1422
     14 F         143.4254  139.6712  170.8523 F       1  UNL1       -0.2041
     15 C         140.9033  140.0897  170.3897 C.ar    1  UNL1        0.0616
     16 C         139.7608  140.2016  169.4241 C.ar    1  UNL1        0.1693
     17 F         138.3812  140.5082  169.9269 F       1  UNL1       -0.2017
     18 C         139.9979  140.0068  167.9559 C.ar    1  UNL1        0.1635
     19 F         138.8554  140.1187  166.9904 F       1  UNL1       -0.2021
     20 C         140.3115  139.6307  158.9935 C.2     1  UNL1        0.0513
     21 O         139.3005  138.6228  158.5331 O.co2   1  UNL1       -0.5491
     22 O         140.2664  141.0337  158.4648 O.co2   1  UNL1       -0.5491
     23 C         142.8980  138.4509  158.0352 C.3     1  UNL1        0.0033
     24 C         142.7840  137.0822  157.4322 C.3     1  UNL1        0.0338
     25 C         143.4171  136.7929  156.1034 C.3     1  UNL1        0.1328
     26 O         144.7836  137.3272  155.7915 O.3     1  UNL1       -0.3801
     27 H         145.1134  137.8341  156.5499 H       1  UNL1        0.2108
     28 C         144.1965  132.3711  155.8037 C.ar    1  UNL1        0.1388
     29 C         143.4631  131.5475  154.7869 C.ar    1  UNL1        0.0384
     30 C         142.4700  132.1979  153.8700 C.ar    1  UNL1        0.0222
     31 C         142.2102  133.6718  153.9699 C.ar    1  UNL1        0.0813
     32 N         141.2171  134.3221  153.0530 N.ar    1  UNL1       -0.2439
     33 C         140.9573  135.7960  153.1529 C.ar    1  UNL1        0.0986
     34 C         141.6906  136.6197  154.1697 C.ar    1  UNL1        0.0187
     35 C         142.6838  135.9693  155.0866 C.ar    1  UNL1        0.0073
     36 C         142.9435  134.4953  154.9867 C.ar    1  UNL1        0.0190
     37 C         143.9367  133.8450  155.9036 C.ar    1  UNL1        0.0382
     38 C         145.4835  132.3282  158.0602 C.3     1  UNL1        0.2525
     39 O         145.1896  131.7207  156.7206 O.3     1  UNL1       -0.4714
@<TRIPOS>UNITY_ATOM_ATTR
21 1
charge -1
@<TRIPOS>BOND
     1    38    39    1
     2    39    28    1
     3    28    29   ar
     4    29    30   ar
     5    30    31   ar
     6    31    32   ar
     7    32    33   ar
     8    33    34   ar
     9    34    35   ar
    10    35    25    1
    11    25    26    1
    12    25    24    1
    13    24    23    1
    14     1    23    1
    15     1     2    1
    16     2     3    1
    17     3     4    1
    18     4     7    1
    19     7     8    1
    20     8     9    1
    21     9    11    1
    22    11    12   ar
    23    12    13   ar
    24    13    14    1
    25    13    15   ar
    26    15    16   ar
    27    16    17    1
    28    16    18   ar
    29    18    19    1
    30     9    10    1
    31     4     5    1
    32     5     6    1
    33     6    20    1
    34    20    21   ar
    35    20    22   ar
    36    35    36   ar
    37    36    37   ar
    38    37    28   ar
    39    36    31   ar
    40     6     1    1
    41    10     7    1
    42    18    11   ar
    43    26    27    1
@<TRIPOS>MOLECULE
*****
 39 43 0 0 0
SMALL
GASTEIGER

@<TRIPOS>ATOM
      1 C         138.7822  142.3715  160.2674 C.3     1  UNL1        0.0080
      2 C         138.0959  141.3536  161.1294 C.3     1  UNL1        0.0177
      3 C         138.4632  141.2276  162.5782 C.3     1  UNL1        0.0721
      4 N         139.5168  142.1195  163.1651 N.3     1  UNL1       -0.2736
      5 C         140.2031  143.1373  162.3032 C.3     1  UNL1        0.0776
      6 C         139.8358  143.2633  160.8543 C.3     1  UNL1        0.0525
      7 C         139.8841  141.9935  164.6140 C.3     1  UNL1        0.0582
      8 C         140.7206  141.0423  165.4173 C.3     1  UNL1        0.0204
      9 C         140.4035  141.8154  166.6631 C.3     1  UNL1        0.0274
     10 C         139.5670  142.7666  165.8597 C.3     1  UNL1        0.0204
     11 C         140.7708  141.6894  168.1119 C.ar    1  UNL1        0.0095
     12 C         141.8386  142.5674  168.6940 C.ar    1  UNL1        0.0277
     13 C         142.2060  142.4415  170.1429 C.ar    1  UNL1        0.1422
     14 F         143.2738  143.3195  170.7249 F       1  UNL1       -0.2041
     15 C         141.5055  141.4375  171.0097 C.ar    1  UNL1        0.0616
     16 C         140.4376  140.5595  170.4275 C.ar    1  UNL1        0.1693
     17 F         139.7371  139.5555  171.2943 F       1  UNL1       -0.2017
     18 C         140.0703  140.6854  168.9787 C.ar    1  UNL1        0.1635
     19 F         139.0025  139.8074  168.3966 F       1  UNL1       -0.2021
     20 C         140.5221  144.2812  159.9924 C.2     1  UNL1        0.0513
     21 O         139.8891  145.6222  159.7668 O.co2   1  UNL1       -0.5491
     22 O         141.8415  143.9580  159.3561 O.co2   1  UNL1       -0.5491
     23 C         138.4150  142.4974  158.8185 C.3     1  UNL1        0.0033
     24 C         139.1646  141.7118  157.7838 C.3     1  UNL1        0.0338
     25 C         139.7595  140.3811  158.1379 C.3     1  UNL1        0.1328
     26 O         138.8717  139.1841  158.3082 O.3     1  UNL1       -0.3801
     27 H         137.9491  139.4415  158.1556 H       1  UNL1        0.2108
     28 C         141.3934  138.0079  161.5945 C.ar    1  UNL1        0.1388
     29 C         142.8761  137.8742  161.7782 C.ar    1  UNL1        0.0384
     30 C         143.8142  138.5316  160.8098 C.ar    1  UNL1        0.0222
     31 C         143.2695  139.3226  159.6576 C.ar    1  UNL1        0.0813
     32 N         144.2076  139.9800  158.6891 N.ar    1  UNL1       -0.2439
     33 C         143.6630  140.7710  157.5369 C.ar    1  UNL1        0.0986
     34 C         142.1803  140.9047  157.3531 C.ar    1  UNL1        0.0187
     35 C         141.2422  140.2474  158.3216 C.ar    1  UNL1        0.0073
     36 C         141.7869  139.4563  159.4739 C.ar    1  UNL1        0.0190
     37 C         140.8488  138.7989  160.4423 C.ar    1  UNL1        0.0382
     38 C         139.0032  137.7260  162.5729 C.3     1  UNL1        0.2525
     39 O         140.4554  137.3505  162.5630 O.3     1  UNL1       -0.4714
@<TRIPOS>UNITY_ATOM_ATTR
21 1
charge -1
@<TRIPOS>BOND
     1    38    39    1
     2    39    28    1
     3    28    29   ar
     4    29    30   ar
     5    30    31   ar
     6    31    32   ar
     7    32    33   ar
     8    33    34   ar
     9    34    35   ar
    10    35    25    1
    11    25    26    1
    12    25    24    1
    13    24    23    1
    14     1    23    1
    15     1     2    1
    16     2     3    1
    17     3     4    1
    18     4     7    1
    19     7     8    1
    20     8     9    1
    21     9    11    1
    22    11    12   ar
    23    12    13   ar
    24    13    14    1
    25    13    15   ar
    26    15    16   ar
    27    16    17    1
    28    16    18   ar
    29    18    19    1
    30     9    10    1
    31     4     5    1
    32     5     6    1
    33     6    20    1
    34    20    21   ar
    35    20    22   ar
    36    35    36   ar
    37    36    37   ar
    38    37    28   ar
    39    36    31   ar
    40     6     1    1
    41    10     7    1
    42    18    11   ar
    43    26    27    1
@<TRIPOS>MOLECULE
*****
 39 43 0 0 0
SMALL
GASTEIGER

@<TRIPOS>ATOM
      1 C         142.4558  143.5752  159.7644 C.3     1  UNL1        0.0080
      2 C         143.7157  143.0014  160.3418 C.3     1  UNL1        0.0177
      3 C         143.7668  142.6089  161.7886 C.3     1  UNL1        0.0721
      4 N         142.5579  142.7901  162.6580 N.3     1  UNL1       -0.2736
      5 C         141.2980  143.3638  162.0806 C.3     1  UNL1        0.0776
      6 C         141.2469  143.7564  160.6338 C.3     1  UNL1        0.0525
      7 C         142.6090  142.3975  164.1048 C.3     1  UNL1        0.0582
      8 C         143.6582  141.8279  165.0129 C.3     1  UNL1        0.0204
      9 C         142.6812  141.8423  166.1510 C.3     1  UNL1        0.0274
     10 C         141.6319  142.4120  165.2429 C.3     1  UNL1        0.0204
     11 C         142.7322  141.4498  167.5978 C.ar    1  UNL1        0.0095
     12 C         142.8933  142.5016  168.6550 C.ar    1  UNL1        0.0277
     13 C         142.9443  142.1090  170.1019 C.ar    1  UNL1        0.1422
     14 F         143.1054  143.1608  171.1591 F       1  UNL1       -0.2041
     15 C         142.8343  140.6647  170.4915 C.ar    1  UNL1        0.0616
     16 C         142.6732  139.6129  169.4342 C.ar    1  UNL1        0.1693
     17 F         142.5632  138.1685  169.8237 F       1  UNL1       -0.2017
     18 C         142.6222  140.0054  167.9874 C.ar    1  UNL1        0.1635
     19 F         142.4611  138.9536  166.9302 F       1  UNL1       -0.2021
     20 C         139.9870  144.3302  160.0564 C.2     1  UNL1        0.0513
     21 O         139.8093  145.8173  159.9738 O.co2   1  UNL1       -0.5491
     22 O         138.9049  143.4168  159.5616 O.co2   1  UNL1       -0.5491
     23 C         142.4047  143.9678  158.3176 C.3     1  UNL1        0.0033
     24 C         142.4452  142.9126  157.2523 C.3     1  UNL1        0.0338
     25 C         141.5473  141.7148  157.3486 C.3     1  UNL1        0.1328
     26 O         140.0629  141.8975  157.4632 O.3     1  UNL1       -0.3801
     27 H         139.8525  142.8444  157.4605 H       1  UNL1        0.2108
     28 C         141.6277  139.2543  161.1155 C.ar    1  UNL1        0.1388
     29 C         142.2142  137.8739  161.0972 C.ar    1  UNL1        0.0384
     30 C         142.7739  137.3136  159.8233 C.ar    1  UNL1        0.0222
     31 C         142.7471  138.1337  158.5677 C.ar    1  UNL1        0.0813
     32 N         143.3068  137.5734  157.2938 N.ar    1  UNL1       -0.2439
     33 C         143.2800  138.3936  156.0382 C.ar    1  UNL1        0.0986
     34 C         142.6935  139.7741  156.0565 C.ar    1  UNL1        0.0187
     35 C         142.1338  140.3344  157.3304 C.ar    1  UNL1        0.0073
     36 C         142.1606  139.5141  158.5860 C.ar    1  UNL1        0.0190
     37 C         141.6009  140.0744  159.8599 C.ar    1  UNL1        0.0382
     38 C         141.1448  139.0166  163.6572 C.3     1  UNL1        0.2525
     39 O         141.0680  139.8146  162.3894 O.3     1  UNL1       -0.4714
@<TRIPOS>UNITY_ATOM_ATTR
21 1
charge -1
@<TRIPOS>BOND
     1    38    39    1
     2    39    28    1
     3    28    29   ar
     4    29    30   ar
     5    30    31   ar
     6    31    32   ar
     7    32    33   ar
     8    33    34   ar
     9    34    35   ar
    10    35    25    1
    11    25    26    1
    12    25    24    1
    13    24    23    1
    14     1    23    1
    15     1     2    1
    16     2     3    1
    17     3     4    1
    18     4     7    1
    19     7     8    1
    20     8     9    1
    21     9    11    1
    22    11    12   ar
    23    12    13   ar
    24    13    14    1
    25    13    15   ar
    26    15    16   ar
    27    16    17    1
    28    16    18   ar
    29    18    19    1
    30     9    10    1
    31     4     5    1
    32     5     6    1
    33     6    20    1
    34    20    21   ar
    35    20    22   ar
    36    35    36   ar
    37    36    37   ar
    38    37    28   ar
    39    36    31   ar
    40     6     1    1
    41    10     7    1
    42    18    11   ar
    43    26    27    1
@<TRIPOS>MOLECULE
*****
 39 43 0 0 0
SMALL
GASTEIGER

@<TRIPOS>ATOM
      1 C         141.3003  140.5209  159.6157 C.3     1  UNL1        0.0080
      2 C         142.4519  140.0403  160.4482 C.3     1  UNL1        0.0177
      3 C         142.3182  139.9632  161.9402 C.3     1  UNL1        0.0721
      4 N         141.0328  140.3667  162.5998 N.3     1  UNL1       -0.2736
      5 C         139.8812  140.8472  161.7675 C.3     1  UNL1        0.0776
      6 C         140.0149  140.9244  160.2754 C.3     1  UNL1        0.0525
      7 C         140.8991  140.2896  164.0918 C.3     1  UNL1        0.0582
      8 C         140.7041  141.2900  165.1924 C.3     1  UNL1        0.0204
      9 C         140.7099  140.1806  166.2020 C.3     1  UNL1        0.0274
     10 C         140.9049  139.1802  165.1014 C.3     1  UNL1        0.0204
     11 C         140.5762  140.1035  167.6940 C.ar    1  UNL1        0.0095
     12 C         139.2198  140.1767  168.3301 C.ar    1  UNL1        0.0277
     13 C         139.0860  140.0996  169.8222 C.ar    1  UNL1        0.1422
     14 F         137.7296  140.1728  170.4584 F       1  UNL1       -0.2041
     15 C         140.3087  139.9493  170.6781 C.ar    1  UNL1        0.0616
     16 C         141.6651  139.8761  170.0418 C.ar    1  UNL1        0.1693
     17 F         142.8878  139.7258  170.8977 F       1  UNL1       -0.2017
     18 C         141.7989  139.9532  168.5498 C.ar    1  UNL1        0.1635
     19 F         143.1553  139.8800  167.9137 F       1  UNL1       -0.2021
     20 C         138.8634  141.4049  159.4430 C.2     1  UNL1        0.0513
     21 O         138.1129  140.4406  158.5731 O.co2   1  UNL1       -0.5491
     22 O         138.4622  142.8498  159.4807 O.co2   1  UNL1       -0.5491
     23 C         141.4340  140.5980  158.1237 C.3     1  UNL1        0.0033
     24 C         142.4424  141.5220  157.5079 C.3     1  UNL1        0.0338
     25 C         142.8841  142.7503  158.2471 C.3     1  UNL1        0.1328
     26 O         144.3175  142.9007  158.6626 O.3     1  UNL1       -0.3801
     27 H         144.8201  142.1215  158.3780 H       1  UNL1        0.2108
     28 C         142.2308  143.9965  162.5215 C.ar    1  UNL1        0.1388
     29 C         141.2390  145.0742  162.8452 C.ar    1  UNL1        0.0384
     30 C         140.4650  145.7365  161.7442 C.ar    1  UNL1        0.0222
     31 C         140.6827  145.3211  160.3195 C.ar    1  UNL1        0.0813
     32 N         139.9087  145.9834  159.2185 N.ar    1  UNL1       -0.2439
     33 C         140.1264  145.5680  157.7937 C.ar    1  UNL1        0.0986
     34 C         141.1182  144.4903  157.4699 C.ar    1  UNL1        0.0187
     35 C         141.8923  143.8280  158.5709 C.ar    1  UNL1        0.0073
     36 C         141.6745  144.2434  159.9957 C.ar    1  UNL1        0.0190
     37 C         142.4485  143.5811  161.0967 C.ar    1  UNL1        0.0382
     38 C         144.4020  142.8500  163.3707 C.3     1  UNL1        0.2525
     39 O         143.0048  143.3342  163.6225 O.3     1  UNL1       -0.4714
@<TRIPOS>UNITY_ATOM_ATTR
21 1
charge -1
@<TRIPOS>BOND
     1    38    39    1
     2    39    28    1
     3    28    29   ar
     4    29    30   ar
     5    30    31   ar
     6    31    32   ar
     7    32    33   ar
     8    33    34   ar
     9    34    35   ar
    10    35    25    1
    11    25    26    1
    12    25    24    1
    13    24    23    1
    14     1    23    1
    15     1     2    1
    16     2     3    1
    17     3     4    1
    18     4     7    1
    19     7     8    1
    20     8     9    1
    21     9    11    1
    22    11    12   ar
    23    12    13   ar
    24    13    14    1
    25    13    15   ar
    26    15    16   ar
    27    16    17    1
    28    16    18   ar
    29    18    19    1
    30     9    10    1
    31     4     5    1
    32     5     6    1
    33     6    20    1
    34    20    21   ar
    35    20    22   ar
    36    35    36   ar
    37    36    37   ar
    38    37    28   ar
    39    36    31   ar
    40     6     1    1
    41    10     7    1
    42    18    11   ar
    43    26    27    1
@<TRIPOS>MOLECULE
*****
 39 43 0 0 0
SMALL
GASTEIGER

@<TRIPOS>ATOM
      1 C         142.3716  143.3618  160.1638 C.3     1  UNL1        0.0080
      2 C         143.5639  142.7296  160.8187 C.3     1  UNL1        0.0177
      3 C         143.4881  142.2910  162.2511 C.3     1  UNL1        0.0721
      4 N         142.2201  142.4846  163.0287 N.3     1  UNL1       -0.2736
      5 C         141.0279  143.1168  162.3739 C.3     1  UNL1        0.0776
      6 C         141.1036  143.5554  160.9414 C.3     1  UNL1        0.0525
      7 C         142.1444  142.0460  164.4611 C.3     1  UNL1        0.0582
      8 C         143.0696  142.1090  165.6400 C.3     1  UNL1        0.0204
      9 C         142.0373  141.4257  166.4870 C.3     1  UNL1        0.0274
     10 C         141.1120  141.3627  165.3080 C.3     1  UNL1        0.0204
     11 C         141.9615  140.9871  167.9194 C.ar    1  UNL1        0.0095
     12 C         141.3505  141.8906  168.9490 C.ar    1  UNL1        0.0277
     13 C         141.2748  141.4520  170.3815 C.ar    1  UNL1        0.1422
     14 F         140.6638  142.3556  171.4112 F       1  UNL1       -0.2041
     15 C         141.8100  140.1099  170.7843 C.ar    1  UNL1        0.0616
     16 C         142.4210  139.2063  169.7545 C.ar    1  UNL1        0.1693
     17 F         142.9562  137.8642  170.1572 F       1  UNL1       -0.2017
     18 C         142.4967  139.6449  168.3221 C.ar    1  UNL1        0.1635
     19 F         143.1077  138.7414  167.2924 F       1  UNL1       -0.2021
     20 C         139.9113  144.1876  160.2866 C.2     1  UNL1        0.0513
     21 O         138.7312  143.3447  159.9036 O.co2   1  UNL1       -0.5491
     22 O         139.8992  145.6627  160.0148 O.co2   1  UNL1       -0.5491
     23 C         142.4473  143.8004  158.7314 C.3     1  UNL1        0.0033
     24 C         142.2377  142.8041  157.6299 C.3     1  UNL1        0.0338
     25 C         141.9387  141.3719  157.9609 C.3     1  UNL1        0.1328
     26 O         143.0549  140.3738  158.0491 O.3     1  UNL1       -0.3801
     27 H         143.8988  140.8155  157.8662 H       1  UNL1        0.2108
     28 C         140.8761  139.1754  161.7419 C.ar    1  UNL1        0.1388
     29 C         139.4609  138.7415  161.9847 C.ar    1  UNL1        0.0384
     30 C         138.3999  139.0397  160.9671 C.ar    1  UNL1        0.0222
     31 C         138.7541  139.7718  159.7068 C.ar    1  UNL1        0.0813
     32 N         137.6932  140.0700  158.6893 N.ar    1  UNL1       -0.2439
     33 C         138.0473  140.8021  157.4289 C.ar    1  UNL1        0.0986
     34 C         139.4625  141.2361  157.1861 C.ar    1  UNL1        0.0187
     35 C         140.5235  140.9380  158.2037 C.ar    1  UNL1        0.0073
     36 C         140.1693  140.2058  159.4641 C.ar    1  UNL1        0.0190
     37 C         141.2302  139.9076  160.4816 C.ar    1  UNL1        0.0382
     38 C         143.3233  138.5170  162.3141 C.3     1  UNL1        0.2525
     39 O         141.9370  138.8773  162.7595 O.3     1  UNL1       -0.4714
@<TRIPOS>UNITY_ATOM_ATTR
21 1
charge -1
@<TRIPOS>BOND
     1    38    39    1
     2    39    28    1
     3    28    29   ar
     4    29    30   ar
     5    30    31   ar
     6    31    32   ar
     7    32    33   ar
     8    33    34   ar
     9    34    35   ar
    10    35    25    1
    11    25    26    1
    12    25    24    1
    13    24    23    1
    14     1    23    1
    15     1     2    1
    16     2     3    1
    17     3     4    1
    18     4     7    1
    19     7     8    1
    20     8     9    1
    21     9    11    1
    22    11    12   ar
    23    12    13   ar
    24    13    14    1
    25    13    15   ar
    26    15    16   ar
    27    16    17    1
    28    16    18   ar
    29    18    19    1
    30     9    10    1
    31     4     5    1
    32     5     6    1
    33     6    20    1
    34    20    21   ar
    35    20    22   ar
    36    35    36   ar
    37    36    37   ar
    38    37    28   ar
    39    36    31   ar
    40     6     1    1
    41    10     7    1
    42    18    11   ar
    43    26    27    1
@<TRIPOS>MOLECULE
*****
 39 43 0 0 0
SMALL
GASTEIGER

@<TRIPOS>ATOM
      1 C         142.7921  140.0648  159.4668 C.3     1  UNL1        0.0080
      2 C         144.0920  140.0326  160.2147 C.3     1  UNL1        0.0177
      3 C         144.0952  140.0571  161.7145 C.3     1  UNL1        0.0721
      4 N         142.7986  140.1139  162.4665 N.3     1  UNL1       -0.2736
      5 C         141.4987  140.1460  161.7187 C.3     1  UNL1        0.0776
      6 C         141.4954  140.1215  160.2188 C.3     1  UNL1        0.0525
      7 C         142.8018  140.1384  163.9662 C.3     1  UNL1        0.0582
      8 C         143.8399  139.9275  165.0283 C.3     1  UNL1        0.0204
      9 C         142.8064  140.1731  166.0873 C.3     1  UNL1        0.0274
     10 C         141.7683  140.3840  165.0253 C.3     1  UNL1        0.0204
     11 C         142.8096  140.1977  167.5871 C.ar    1  UNL1        0.0095
     12 C         142.7067  138.9153  168.3584 C.ar    1  UNL1        0.0277
     13 C         142.7099  138.9398  169.8582 C.ar    1  UNL1        0.1422
     14 F         142.6070  137.6574  170.6295 F       1  UNL1       -0.2041
     15 C         142.8160  140.2467  170.5867 C.ar    1  UNL1        0.0616
     16 C         142.9189  141.5291  169.8154 C.ar    1  UNL1        0.1693
     17 F         143.0250  142.8360  170.5439 F       1  UNL1       -0.2017
     18 C         142.9157  141.5046  168.3156 C.ar    1  UNL1        0.1635
     19 F         143.0186  142.7869  167.5443 F       1  UNL1       -0.2021
     20 C         140.1956  140.1537  159.4710 C.2     1  UNL1        0.0513
     21 O         139.5108  141.4631  159.2134 O.co2   1  UNL1       -0.5491
     22 O         139.5805  138.8764  158.9809 O.co2   1  UNL1       -0.5491
     23 C         142.7889  140.0402  157.9671 C.3     1  UNL1        0.0033
     24 C         142.8602  141.3247  157.1959 C.3     1  UNL1        0.0338
     25 C         143.2177  142.6017  157.8971 C.3     1  UNL1        0.1328
     26 O         144.6574  142.9500  158.1334 O.3     1  UNL1       -0.3801
     27 H         145.2229  142.2486  157.7739 H       1  UNL1        0.2108
     28 C         143.0021  143.8187  162.2240 C.ar    1  UNL1        0.1388
     29 C         141.9198  144.7474  162.6888 C.ar    1  UNL1        0.0384
     30 C         140.9093  145.2705  161.7114 C.ar    1  UNL1        0.0222
     31 C         140.9812  144.8648  160.2691 C.ar    1  UNL1        0.0813
     32 N         139.9707  145.3878  159.2916 N.ar    1  UNL1       -0.2439
     33 C         140.0426  144.9822  157.8494 C.ar    1  UNL1        0.0986
     34 C         141.1249  144.0535  157.3845 C.ar    1  UNL1        0.0187
     35 C         142.1354  143.5304  158.3619 C.ar    1  UNL1        0.0073
     36 C         142.0635  143.9361  159.8043 C.ar    1  UNL1        0.0190
     37 C         143.0739  143.4131  160.7817 C.ar    1  UNL1        0.0382
     38 C         144.1205  143.9060  164.5674 C.3     1  UNL1        0.2525
     39 O         144.0126  143.2957  163.2015 O.3     1  UNL1       -0.4714
@<TRIPOS>UNITY_ATOM_ATTR
21 1
charge -1
@<TRIPOS>BOND
     1    38    39    1
     2    39    28    1
     3    28    29   ar
     4    29    30   ar
     5    30    31   ar
     6    31    32   ar
     7    32    33   ar
     8    33    34   ar
     9    34    35   ar
    10    35    25    1
    11    25    26    1
    12    25    24    1
    13    24    23    1
    14     1    23    1
    15     1     2    1
    16     2     3    1
    17     3     4    1
    18     4     7    1
    19     7     8    1
    20     8     9    1
    21     9    11    1
    22    11    12   ar
    23    12    13   ar
    24    13    14    1
    25    13    15   ar
    26    15    16   ar
    27    16    17    1
    28    16    18   ar
    29    18    19    1
    30     9    10    1
    31     4     5    1
    32     5     6    1
    33     6    20    1
    34    20    21   ar
    35    20    22   ar
    36    35    36   ar
    37    36    37   ar
    38    37    28   ar
    39    36    31   ar
    40     6     1    1
    41    10     7    1
    42    18    11   ar
    43    26    27    1
