@<TRIPOS>MOLECULE
*****
 38 41 0 0 0
SMALL
GASTEIGER

@<TRIPOS>ATOM
      1 C         141.5595  141.4886  167.4378 C.2     1  UNL1       -0.0039
      2 C         140.9856  140.1236  167.6776 C.2     1  UNL1       -0.0199
      3 C         140.3443  139.3709  166.5496 C.ar    1  UNL1        0.0237
      4 C         138.8586  139.4358  166.3536 C.ar    1  UNL1        0.0042
      5 C         138.2173  138.6831  165.2257 C.ar    1  UNL1        0.0298
      6 C         139.0617  137.8654  164.2938 C.ar    1  UNL1        0.1424
      7 F         138.4204  137.1128  163.1659 F       1  UNL1       -0.2041
      8 C         140.5474  137.8005  164.4898 C.ar    1  UNL1        0.0592
      9 C         141.1887  138.5533  165.6178 C.ar    1  UNL1        0.1420
     10 F         142.6745  138.4884  165.8138 F       1  UNL1       -0.2041
     11 C         142.2007  142.2412  168.5658 C.ar    1  UNL1       -0.0001
     12 C         141.3780  143.1645  169.4148 C.ar    1  UNL1        0.0031
     13 C         142.0192  143.9171  170.5427 C.ar    1  UNL1        0.0366
     14 C         143.4832  143.7466  170.8217 C.ar    1  UNL1        0.1337
     15 O         144.1244  144.4993  171.9497 O.3     1  UNL1       -0.5055
     16 C         144.3059  142.8234  169.9727 C.ar    1  UNL1        0.0366
     17 C         143.6646  142.0707  168.8447 C.ar    1  UNL1        0.0031
     18 H         143.6105  145.0760  172.4800 H       1  UNL1        0.2922
     19 C         141.3573  143.3254  163.3348 C.ar    1  UNL1       -0.0224
     20 C         142.5404  142.4900  163.7250 C.ar    1  UNL1       -0.0043
     21 C         142.6078  141.8777  165.0927 C.ar    1  UNL1       -0.0003
     22 C         141.4921  142.1008  166.0701 C.ar    1  UNL1       -0.0003
     23 C         140.3090  142.9363  165.6799 C.ar    1  UNL1       -0.0003
     24 C         140.2416  143.5486  164.3122 C.ar    1  UNL1       -0.0043
     25 N         141.1552  145.1623  159.2317 N.3     1  UNL1       -0.2739
     26 C         140.2781  145.6840  160.3310 C.3     1  UNL1        0.0724
     27 C         140.3455  145.0717  161.6987 C.3     1  UNL1        0.0217
     28 C         141.2900  143.9377  161.9671 C.3     1  UNL1        0.0251
     29 C         142.1671  143.4161  160.8678 C.3     1  UNL1        0.0217
     30 C         142.0997  144.0284  159.5001 C.3     1  UNL1        0.0724
     31 C         139.8271  146.4440  157.4033 C.3     1  UNL1        0.0173
     32 C         141.0878  145.7746  157.8640 C.3     1  UNL1        0.0576
     33 C         142.2812  145.7175  156.9571 C.3     1  UNL1        0.0173
     34 C         141.0530  139.5113  169.0453 C.3     1  UNL1        0.0290
     35 C         140.1891  140.0451  170.1493 C.3     1  UNL1        0.0364
     36 C         138.7430  140.3479  169.8904 C.3     1  UNL1        0.1375
     37 O         137.6749  139.5513  170.5793 O.3     1  UNL1       -0.3820
     38 H         137.7063  138.6326  170.2696 H       1  UNL1        0.2104
@<TRIPOS>BOND
     1    31    32    1
     2    32    33    1
     3    32    25    1
     4    25    26    1
     5    26    27    1
     6    27    28    1
     7    28    19    1
     8    19    20   ar
     9    20    21   ar
    10    21    22   ar
    11    22     1    1
    12     1     2    2
    13     2    34    1
    14    34    35    1
    15    35    36    1
    16    36    37    1
    17     2     3    1
    18     3     4   ar
    19     4     5   ar
    20     5     6   ar
    21     6     7    1
    22     6     8   ar
    23     8     9   ar
    24     9    10    1
    25     1    11    1
    26    11    12   ar
    27    12    13   ar
    28    13    14   ar
    29    14    15    1
    30    14    16   ar
    31    16    17   ar
    32    22    23   ar
    33    23    24   ar
    34    28    29    1
    35    29    30    1
    36    30    25    1
    37    24    19   ar
    38     9     3   ar
    39    17    11   ar
    40    37    38    1
    41    15    18    1
@<TRIPOS>MOLECULE
*****
 38 41 0 0 0
SMALL
GASTEIGER

@<TRIPOS>ATOM
      1 C         140.9230  140.5815  165.0465 C.2     1  UNL1       -0.0039
      2 C         139.4593  140.2544  165.0196 C.2     1  UNL1       -0.0199
      3 C         138.7472  140.1093  163.7074 C.ar    1  UNL1        0.0237
      4 C         138.2685  141.3278  162.9751 C.ar    1  UNL1        0.0042
      5 C         137.5564  141.1828  161.6630 C.ar    1  UNL1        0.0298
      6 C         137.3230  139.8193  161.0830 C.ar    1  UNL1        0.1424
      7 F         136.6109  139.6743  159.7708 F       1  UNL1       -0.2041
      8 C         137.8017  138.6008  161.8152 C.ar    1  UNL1        0.0592
      9 C         138.5138  138.7458  163.1275 C.ar    1  UNL1        0.1420
     10 F         138.9924  137.5274  163.8597 F       1  UNL1       -0.2041
     11 C         141.6350  140.7265  166.3587 C.ar    1  UNL1       -0.0001
     12 C         142.1056  139.5075  167.0955 C.ar    1  UNL1        0.0031
     13 C         142.8176  139.6526  168.4077 C.ar    1  UNL1        0.0366
     14 C         143.0591  141.0165  168.9832 C.ar    1  UNL1        0.1337
     15 O         143.7712  141.1615  170.2955 O.3     1  UNL1       -0.5055
     16 C         142.5886  142.2355  168.2465 C.ar    1  UNL1        0.0366
     17 C         141.8765  142.0905  166.9343 C.ar    1  UNL1        0.0031
     18 H         144.0652  140.4001  170.7557 H       1  UNL1        0.2922
     19 C         143.1777  141.1275  161.1906 C.ar    1  UNL1       -0.0224
     20 C         142.6471  142.3230  161.9249 C.ar    1  UNL1       -0.0043
     21 C         141.8955  142.1410  163.2102 C.ar    1  UNL1       -0.0003
     22 C         141.6745  140.7635  163.7612 C.ar    1  UNL1       -0.0003
     23 C         142.2052  139.5680  163.0269 C.ar    1  UNL1       -0.0003
     24 C         142.9567  139.7500  161.7416 C.ar    1  UNL1       -0.0043
     25 N         145.4325  141.6735  157.3347 N.3     1  UNL1       -0.2739
     26 C         145.5417  142.7035  158.4197 C.3     1  UNL1        0.0724
     27 C         144.7901  142.5214  159.7050 C.3     1  UNL1        0.0217
     28 C         143.9293  141.3095  159.9053 C.3     1  UNL1        0.0251
     29 C         143.8201  140.2796  158.8203 C.3     1  UNL1        0.0217
     30 C         144.5717  140.4616  157.5351 C.3     1  UNL1        0.0724
     31 C         145.5540  141.4538  154.7489 C.3     1  UNL1        0.0173
     32 C         146.1841  141.8555  156.0495 C.3     1  UNL1        0.0576
     33 C         147.5657  142.4393  156.0648 C.3     1  UNL1        0.0173
     34 C         138.7077  140.0724  166.3049 C.3     1  UNL1        0.0290
     35 C         138.6075  138.7120  166.9290 C.3     1  UNL1        0.0364
     36 C         137.2613  138.1051  167.1926 C.3     1  UNL1        0.1375
     37 O         137.1353  136.6269  167.4136 O.3     1  UNL1       -0.3820
     38 H         137.3682  136.1569  166.5977 H       1  UNL1        0.2104
@<TRIPOS>BOND
     1    31    32    1
     2    32    33    1
     3    32    25    1
     4    25    26    1
     5    26    27    1
     6    27    28    1
     7    28    19    1
     8    19    20   ar
     9    20    21   ar
    10    21    22   ar
    11    22     1    1
    12     1     2    2
    13     2    34    1
    14    34    35    1
    15    35    36    1
    16    36    37    1
    17     2     3    1
    18     3     4   ar
    19     4     5   ar
    20     5     6   ar
    21     6     7    1
    22     6     8   ar
    23     8     9   ar
    24     9    10    1
    25     1    11    1
    26    11    12   ar
    27    12    13   ar
    28    13    14   ar
    29    14    15    1
    30    14    16   ar
    31    16    17   ar
    32    22    23   ar
    33    23    24   ar
    34    28    29    1
    35    29    30    1
    36    30    25    1
    37    24    19   ar
    38     9     3   ar
    39    17    11   ar
    40    37    38    1
    41    15    18    1
@<TRIPOS>MOLECULE
*****
 38 41 0 0 0
SMALL
GASTEIGER

@<TRIPOS>ATOM
      1 C         141.6041  141.5137  167.4985 C.2     1  UNL1       -0.0039
      2 C         141.0361  140.1489  167.7529 C.2     1  UNL1       -0.0199
      3 C         140.3960  139.3824  166.6335 C.ar    1  UNL1        0.0237
      4 C         141.2265  138.9095  165.4774 C.ar    1  UNL1        0.0042
      5 C         140.5865  138.1429  164.3581 C.ar    1  UNL1        0.0298
      6 C         139.1160  137.8493  164.3950 C.ar    1  UNL1        0.1424
      7 F         138.4760  137.0828  163.2757 F       1  UNL1       -0.2041
      8 C         138.2855  138.3222  165.5511 C.ar    1  UNL1        0.0592
      9 C         138.9255  139.0887  166.6704 C.ar    1  UNL1        0.1420
     10 F         138.0950  139.5616  167.8265 F       1  UNL1       -0.2041
     11 C         142.2442  142.2801  168.6178 C.ar    1  UNL1       -0.0001
     12 C         143.7297  142.2175  168.8163 C.ar    1  UNL1        0.0031
     13 C         144.3697  142.9840  169.9356 C.ar    1  UNL1        0.0366
     14 C         143.5243  143.8131  170.8564 C.ar    1  UNL1        0.1337
     15 O         144.1644  144.5796  171.9757 O.3     1  UNL1       -0.5055
     16 C         142.0388  143.8757  170.6579 C.ar    1  UNL1        0.0366
     17 C         141.3987  143.1092  169.5386 C.ar    1  UNL1        0.0031
     18 H         145.0923  144.5405  172.0997 H       1  UNL1        0.2922
     19 C         141.3882  143.3085  163.3776 C.ar    1  UNL1       -0.0224
     20 C         142.6996  142.8150  163.9129 C.ar    1  UNL1       -0.0043
     21 C         142.7716  142.2167  165.2866 C.ar    1  UNL1       -0.0003
     22 C         141.5322  142.1119  166.1248 C.ar    1  UNL1       -0.0003
     23 C         140.2208  142.6054  165.5895 C.ar    1  UNL1       -0.0003
     24 C         140.1488  143.2037  164.2158 C.ar    1  UNL1       -0.0043
     25 N         141.1723  145.1033  159.2566 N.3     1  UNL1       -0.2739
     26 C         142.1053  143.9608  159.5292 C.3     1  UNL1        0.0724
     27 C         142.1773  143.3626  160.9028 C.3     1  UNL1        0.0217
     28 C         141.3163  143.9067  162.0039 C.3     1  UNL1        0.0251
     29 C         140.3833  145.0491  161.7314 C.3     1  UNL1        0.0217
     30 C         140.3113  145.6474  160.3577 C.3     1  UNL1        0.0724
     31 C         139.8640  146.4298  157.4459 C.3     1  UNL1        0.0173
     32 C         141.1004  145.7015  157.8830 C.3     1  UNL1        0.0576
     33 C         142.2647  145.5715  156.9464 C.3     1  UNL1        0.0173
     34 C         141.1081  139.5507  169.1265 C.3     1  UNL1        0.0290
     35 C         142.3984  138.9705  169.6252 C.3     1  UNL1        0.0364
     36 C         143.0806  139.5735  170.8173 C.3     1  UNL1        0.1375
     37 O         142.3086  140.4476  171.7607 O.3     1  UNL1       -0.3820
     38 H         142.0373  141.2580  171.3019 H       1  UNL1        0.2104
@<TRIPOS>BOND
     1    31    32    1
     2    32    33    1
     3    32    25    1
     4    25    26    1
     5    26    27    1
     6    27    28    1
     7    28    19    1
     8    19    20   ar
     9    20    21   ar
    10    21    22   ar
    11    22     1    1
    12     1     2    2
    13     2    34    1
    14    34    35    1
    15    35    36    1
    16    36    37    1
    17     2     3    1
    18     3     4   ar
    19     4     5   ar
    20     5     6   ar
    21     6     7    1
    22     6     8   ar
    23     8     9   ar
    24     9    10    1
    25     1    11    1
    26    11    12   ar
    27    12    13   ar
    28    13    14   ar
    29    14    15    1
    30    14    16   ar
    31    16    17   ar
    32    22    23   ar
    33    23    24   ar
    34    28    29    1
    35    29    30    1
    36    30    25    1
    37    24    19   ar
    38     9     3   ar
    39    17    11   ar
    40    37    38    1
    41    15    18    1
@<TRIPOS>MOLECULE
*****
 38 41 0 0 0
SMALL
GASTEIGER

@<TRIPOS>ATOM
      1 C         141.0891  141.1940  166.6817 C.2     1  UNL1       -0.0039
      2 C         139.8759  140.3222  166.8166 C.2     1  UNL1       -0.0199
      3 C         139.3130  139.6286  165.6116 C.ar    1  UNL1        0.0237
      4 C         139.6617  138.1951  165.3403 C.ar    1  UNL1        0.0042
      5 C         139.0988  137.5014  164.1353 C.ar    1  UNL1        0.0298
      6 C         138.1873  138.2413  163.2015 C.ar    1  UNL1        0.1424
      7 F         137.6245  137.5476  161.9966 F       1  UNL1       -0.2041
      8 C         137.8387  139.6747  163.4728 C.ar    1  UNL1        0.0592
      9 C         138.4016  140.3684  164.6778 C.ar    1  UNL1        0.1420
     10 F         138.0530  141.8019  164.9491 F       1  UNL1       -0.2041
     11 C         141.6519  141.8876  167.8868 C.ar    1  UNL1       -0.0001
     12 C         143.0208  141.5315  168.3860 C.ar    1  UNL1        0.0031
     13 C         143.5836  142.2251  169.5910 C.ar    1  UNL1        0.0366
     14 C         142.7776  143.2749  170.2969 C.ar    1  UNL1        0.1337
     15 O         143.3404  143.9685  171.5019 O.3     1  UNL1       -0.5055
     16 C         141.4087  143.6310  169.7977 C.ar    1  UNL1        0.0366
     17 C         140.8458  142.9374  168.5926 C.ar    1  UNL1        0.0031
     18 H         144.1956  143.7460  171.8137 H       1  UNL1        0.2922
     19 C         143.0400  141.7286  162.6620 C.ar    1  UNL1       -0.0224
     20 C         143.3760  140.5349  163.5060 C.ar    1  UNL1       -0.0043
     21 C         142.7256  140.3567  164.8459 C.ar    1  UNL1       -0.0003
     22 C         141.7394  141.3722  165.3418 C.ar    1  UNL1       -0.0003
     23 C         141.4034  142.5659  164.4979 C.ar    1  UNL1       -0.0003
     24 C         142.0538  142.7441  163.1580 C.ar    1  UNL1       -0.0043
     25 N         144.9910  142.2631  158.6424 N.3     1  UNL1       -0.2739
     26 C         145.5821  142.9172  159.8559 C.3     1  UNL1        0.0724
     27 C         144.9318  142.7391  161.1958 C.3     1  UNL1        0.0217
     28 C         143.6904  141.9068  161.3221 C.3     1  UNL1        0.0251
     29 C         143.0992  141.2527  160.1086 C.3     1  UNL1        0.0217
     30 C         143.7496  141.4308  158.7687 C.3     1  UNL1        0.0724
     31 C         144.8431  142.2399  156.0486 C.3     1  UNL1        0.0173
     32 C         145.6413  142.4413  157.3025 C.3     1  UNL1        0.0576
     33 C         147.0899  142.8209  157.2164 C.3     1  UNL1        0.0173
     34 C         139.2256  140.1441  168.1565 C.3     1  UNL1        0.0290
     35 C         140.0505  139.7414  169.3430 C.3     1  UNL1        0.0364
     36 C         139.6740  140.2178  170.7146 C.3     1  UNL1        0.1375
     37 O         140.7420  140.5101  171.7264 O.3     1  UNL1       -0.3820
     38 H         141.1997  139.6875  171.9602 H       1  UNL1        0.2104
@<TRIPOS>BOND
     1    31    32    1
     2    32    33    1
     3    32    25    1
     4    25    26    1
     5    26    27    1
     6    27    28    1
     7    28    19    1
     8    19    20   ar
     9    20    21   ar
    10    21    22   ar
    11    22     1    1
    12     1     2    2
    13     2    34    1
    14    34    35    1
    15    35    36    1
    16    36    37    1
    17     2     3    1
    18     3     4   ar
    19     4     5   ar
    20     5     6   ar
    21     6     7    1
    22     6     8   ar
    23     8     9   ar
    24     9    10    1
    25     1    11    1
    26    11    12   ar
    27    12    13   ar
    28    13    14   ar
    29    14    15    1
    30    14    16   ar
    31    16    17   ar
    32    22    23   ar
    33    23    24   ar
    34    28    29    1
    35    29    30    1
    36    30    25    1
    37    24    19   ar
    38     9     3   ar
    39    17    11   ar
    40    37    38    1
    41    15    18    1
@<TRIPOS>MOLECULE
*****
 38 41 0 0 0
SMALL
GASTEIGER

@<TRIPOS>ATOM
      1 C         140.3072  140.8863  164.5751 C.2     1  UNL1       -0.0039
      2 C         141.4076  141.5685  165.3326 C.2     1  UNL1       -0.0199
      3 C         142.1979  142.6651  164.6821 C.ar    1  UNL1        0.0237
      4 C         143.5834  142.3923  164.1761 C.ar    1  UNL1        0.0042
      5 C         144.3737  143.4888  163.5257 C.ar    1  UNL1        0.0298
      6 C         143.7785  144.8581  163.3812 C.ar    1  UNL1        0.1424
      7 F         144.5688  145.9546  162.7308 F       1  UNL1       -0.2041
      8 C         142.3930  145.1309  163.8872 C.ar    1  UNL1        0.0592
      9 C         141.6027  144.0343  164.5377 C.ar    1  UNL1        0.1420
     10 F         140.2172  144.3071  165.0436 F       1  UNL1       -0.2041
     11 C         139.5170  139.7898  165.2256 C.ar    1  UNL1       -0.0001
     12 C         139.6107  138.3866  164.7036 C.ar    1  UNL1        0.0031
     13 C         138.8204  137.2901  165.3541 C.ar    1  UNL1        0.0366
     14 C         137.9365  137.5967  166.5265 C.ar    1  UNL1        0.1337
     15 O         137.1462  136.5001  167.1770 O.3     1  UNL1       -0.5055
     16 C         137.8428  138.9998  167.0485 C.ar    1  UNL1        0.0366
     17 C         138.6331  140.0963  166.3980 C.ar    1  UNL1        0.0031
     18 H         137.2047  135.6236  166.8509 H       1  UNL1        0.2922
     19 C         139.3770  142.1290  160.3514 C.ar    1  UNL1       -0.0224
     20 C         140.5510  141.2378  160.6296 C.ar    1  UNL1       -0.0043
     21 C         140.8611  140.8236  162.0376 C.ar    1  UNL1       -0.0003
     22 C         139.9972  141.3005  163.1672 C.ar    1  UNL1       -0.0003
     23 C         138.8232  142.1917  162.8889 C.ar    1  UNL1       -0.0003
     24 C         138.5131  142.6060  161.4810 C.ar    1  UNL1       -0.0043
     25 N         138.4468  143.3718  156.1276 N.3     1  UNL1       -0.2739
     26 C         137.6511  142.2809  156.7809 C.3     1  UNL1        0.0724
     27 C         137.9612  141.8667  158.1888 C.3     1  UNL1        0.0217
     28 C         139.0669  142.5433  158.9434 C.3     1  UNL1        0.0251
     29 C         139.8626  143.6342  158.2901 C.3     1  UNL1        0.0217
     30 C         139.5525  144.0484  156.8822 C.3     1  UNL1        0.0724
     31 C         139.2232  144.3335  153.8424 C.3     1  UNL1        0.0173
     32 C         138.1367  143.7861  154.7197 C.3     1  UNL1        0.0576
     33 C         136.7400  143.6529  154.1890 C.3     1  UNL1        0.0173
     34 C         141.7176  141.1543  166.7405 C.3     1  UNL1        0.0290
     35 C         141.6242  142.1545  167.8544 C.3     1  UNL1        0.0364
     36 C         140.3590  142.9341  168.0581 C.3     1  UNL1        0.1375
     37 O         140.1898  143.7823  169.2836 O.3     1  UNL1       -0.3820
     38 H         140.1581  143.2135  170.0687 H       1  UNL1        0.2104
@<TRIPOS>BOND
     1    31    32    1
     2    32    33    1
     3    32    25    1
     4    25    26    1
     5    26    27    1
     6    27    28    1
     7    28    19    1
     8    19    20   ar
     9    20    21   ar
    10    21    22   ar
    11    22     1    1
    12     1     2    2
    13     2    34    1
    14    34    35    1
    15    35    36    1
    16    36    37    1
    17     2     3    1
    18     3     4   ar
    19     4     5   ar
    20     5     6   ar
    21     6     7    1
    22     6     8   ar
    23     8     9   ar
    24     9    10    1
    25     1    11    1
    26    11    12   ar
    27    12    13   ar
    28    13    14   ar
    29    14    15    1
    30    14    16   ar
    31    16    17   ar
    32    22    23   ar
    33    23    24   ar
    34    28    29    1
    35    29    30    1
    36    30    25    1
    37    24    19   ar
    38     9     3   ar
    39    17    11   ar
    40    37    38    1
    41    15    18    1
@<TRIPOS>MOLECULE
*****
 38 41 0 0 0
SMALL
GASTEIGER

@<TRIPOS>ATOM
      1 C         140.3806  139.9206  163.8536 C.2     1  UNL1       -0.0039
      2 C         141.8203  140.1666  164.1951 C.2     1  UNL1       -0.0199
      3 C         142.7258  140.8258  163.1973 C.ar    1  UNL1        0.0237
      4 C         142.9167  142.3134  163.2258 C.ar    1  UNL1        0.0042
      5 C         143.8221  142.9726  162.2280 C.ar    1  UNL1        0.0298
      6 C         144.5367  142.1443  161.2017 C.ar    1  UNL1        0.1424
      7 F         145.4421  142.8035  160.2039 F       1  UNL1       -0.2041
      8 C         144.3458  140.6568  161.1731 C.ar    1  UNL1        0.0592
      9 C         143.4404  139.9975  162.1710 C.ar    1  UNL1        0.1420
     10 F         143.2495  138.5100  162.1425 F       1  UNL1       -0.2041
     11 C         139.4752  139.2614  164.8514 C.ar    1  UNL1       -0.0001
     12 C         138.8198  140.0793  165.9245 C.ar    1  UNL1        0.0031
     13 C         137.9144  139.4201  166.9223 C.ar    1  UNL1        0.0366
     14 C         137.6644  137.9430  166.8471 C.ar    1  UNL1        0.1337
     15 O         136.7590  137.2838  167.8450 O.3     1  UNL1       -0.5055
     16 C         138.3198  137.1251  165.7741 C.ar    1  UNL1        0.0366
     17 C         139.2253  137.7843  164.7762 C.ar    1  UNL1        0.0031
     18 H         136.3496  137.7947  168.5153 H       1  UNL1        0.2922
     19 C         138.7777  141.1600  159.8356 C.ar    1  UNL1       -0.0224
     20 C         138.7270  142.1157  160.9906 C.ar    1  UNL1       -0.0043
     21 C         139.2613  141.7026  162.3299 C.ar    1  UNL1       -0.0003
     22 C         139.8463  140.3337  162.5142 C.ar    1  UNL1       -0.0003
     23 C         139.8970  139.3780  161.3592 C.ar    1  UNL1       -0.0003
     24 C         139.3627  139.7912  160.0199 C.ar    1  UNL1       -0.0043
     25 N         137.1748  142.3995  155.8176 N.3     1  UNL1       -0.2739
     26 C         136.7041  141.1244  156.4520 C.3     1  UNL1        0.0724
     27 C         137.2384  140.7112  157.7913 C.3     1  UNL1        0.0217
     28 C         138.2434  141.5732  158.4962 C.3     1  UNL1        0.0251
     29 C         138.7140  142.8483  157.8619 C.3     1  UNL1        0.0217
     30 C         138.1797  143.2615  156.5225 C.3     1  UNL1        0.0724
     31 C         135.7894  141.8654  153.6856 C.3     1  UNL1        0.0173
     32 C         136.6405  142.8127  154.4782 C.3     1  UNL1        0.0576
     33 C         136.9572  144.1731  153.9316 C.3     1  UNL1        0.0173
     34 C         142.3546  139.7534  165.5344 C.3     1  UNL1        0.0290
     35 C         143.2744  138.5735  165.6435 C.3     1  UNL1        0.0364
     36 C         143.6745  138.0567  166.9936 C.3     1  UNL1        0.1375
     37 O         144.7407  137.0080  167.1095 O.3     1  UNL1       -0.3820
     38 H         144.4280  136.1831  166.7061 H       1  UNL1        0.2104
@<TRIPOS>BOND
     1    31    32    1
     2    32    33    1
     3    32    25    1
     4    25    26    1
     5    26    27    1
     6    27    28    1
     7    28    19    1
     8    19    20   ar
     9    20    21   ar
    10    21    22   ar
    11    22     1    1
    12     1     2    2
    13     2    34    1
    14    34    35    1
    15    35    36    1
    16    36    37    1
    17     2     3    1
    18     3     4   ar
    19     4     5   ar
    20     5     6   ar
    21     6     7    1
    22     6     8   ar
    23     8     9   ar
    24     9    10    1
    25     1    11    1
    26    11    12   ar
    27    12    13   ar
    28    13    14   ar
    29    14    15    1
    30    14    16   ar
    31    16    17   ar
    32    22    23   ar
    33    23    24   ar
    34    28    29    1
    35    29    30    1
    36    30    25    1
    37    24    19   ar
    38     9     3   ar
    39    17    11   ar
    40    37    38    1
    41    15    18    1
@<TRIPOS>MOLECULE
*****
 38 41 0 0 0
SMALL
GASTEIGER

@<TRIPOS>ATOM
      1 C         140.7206  139.8115  165.0922 C.2     1  UNL1       -0.0039
      2 C         142.1159  139.7648  165.6406 C.2     1  UNL1       -0.0199
      3 C         143.2469  140.3744  164.8664 C.ar    1  UNL1        0.0237
      4 C         143.7307  141.7531  165.2057 C.ar    1  UNL1        0.0042
      5 C         144.8616  142.3627  164.4316 C.ar    1  UNL1        0.0298
      6 C         145.5089  141.5936  163.3182 C.ar    1  UNL1        0.1424
      7 F         146.6398  142.2033  162.5441 F       1  UNL1       -0.2041
      8 C         145.0251  140.2149  162.9789 C.ar    1  UNL1        0.0592
      9 C         143.8940  139.6053  163.7530 C.ar    1  UNL1        0.1420
     10 F         143.4103  138.2266  163.4137 F       1  UNL1       -0.2041
     11 C         139.5897  139.2019  165.8663 C.ar    1  UNL1       -0.0001
     12 C         138.9850  137.9054  165.4153 C.ar    1  UNL1        0.0031
     13 C         137.8541  137.2957  166.1895 C.ar    1  UNL1        0.0366
     14 C         137.3278  137.9826  167.4147 C.ar    1  UNL1        0.1337
     15 O         136.1968  137.3730  168.1888 O.3     1  UNL1       -0.5055
     16 C         137.9324  139.2791  167.8657 C.ar    1  UNL1        0.0366
     17 C         139.0633  139.8888  167.0916 C.ar    1  UNL1        0.0031
     18 H         135.8191  136.5631  167.9071 H       1  UNL1        0.2922
     19 C         139.9273  141.7807  161.1244 C.ar    1  UNL1       -0.0224
     20 C         139.8699  142.5882  162.3872 C.ar    1  UNL1       -0.0043
     21 C         140.1343  141.9318  163.7098 C.ar    1  UNL1       -0.0003
     22 C         140.4562  140.4679  163.7696 C.ar    1  UNL1       -0.0003
     23 C         140.5135  139.6605  162.5068 C.ar    1  UNL1       -0.0003
     24 C         140.2491  140.3169  161.1842 C.ar    1  UNL1       -0.0043
     25 N         139.1340  143.7499  157.1567 N.3     1  UNL1       -0.2739
     26 C         138.2192  142.6705  157.6545 C.3     1  UNL1        0.0724
     27 C         138.4836  142.0141  158.9771 C.3     1  UNL1        0.0217
     28 C         139.6629  142.4371  159.8019 C.3     1  UNL1        0.0251
     29 C         140.5778  143.5165  159.3040 C.3     1  UNL1        0.0217
     30 C         140.3133  144.1729  157.9815 C.3     1  UNL1        0.0724
     31 C         140.0008  145.0144  155.0591 C.3     1  UNL1        0.0173
     32 C         138.8696  144.4063  155.8341 C.3     1  UNL1        0.0576
     33 C         137.4740  144.4547  155.2865 C.3     1  UNL1        0.0173
     34 C         142.3803  139.1084  166.9632 C.3     1  UNL1        0.0290
     35 C         142.6091  139.9482  168.1849 C.3     1  UNL1        0.0364
     36 C         142.1209  139.4755  169.5221 C.3     1  UNL1        0.1375
     37 O         142.9324  138.4920  170.3120 O.3     1  UNL1       -0.3820
     38 H         142.9614  137.6445  169.8410 H       1  UNL1        0.2104
@<TRIPOS>BOND
     1    31    32    1
     2    32    33    1
     3    32    25    1
     4    25    26    1
     5    26    27    1
     6    27    28    1
     7    28    19    1
     8    19    20   ar
     9    20    21   ar
    10    21    22   ar
    11    22     1    1
    12     1     2    2
    13     2    34    1
    14    34    35    1
    15    35    36    1
    16    36    37    1
    17     2     3    1
    18     3     4   ar
    19     4     5   ar
    20     5     6   ar
    21     6     7    1
    22     6     8   ar
    23     8     9   ar
    24     9    10    1
    25     1    11    1
    26    11    12   ar
    27    12    13   ar
    28    13    14   ar
    29    14    15    1
    30    14    16   ar
    31    16    17   ar
    32    22    23   ar
    33    23    24   ar
    34    28    29    1
    35    29    30    1
    36    30    25    1
    37    24    19   ar
    38     9     3   ar
    39    17    11   ar
    40    37    38    1
    41    15    18    1
@<TRIPOS>MOLECULE
*****
 38 41 0 0 0
SMALL
GASTEIGER

@<TRIPOS>ATOM
      1 C         140.7996  140.6489  166.7667 C.2     1  UNL1       -0.0039
      2 C         142.2496  140.8063  167.1171 C.2     1  UNL1       -0.0199
      3 C         143.2482  141.1358  166.0474 C.ar    1  UNL1        0.0237
      4 C         143.5887  142.5670  165.7544 C.ar    1  UNL1        0.0042
      5 C         144.5873  142.8966  164.6848 C.ar    1  UNL1        0.0298
      6 C         145.2455  141.7949  163.9081 C.ar    1  UNL1        0.1424
      7 F         146.2440  142.1245  162.8384 F       1  UNL1       -0.2041
      8 C         144.9050  140.3638  164.2010 C.ar    1  UNL1        0.0592
      9 C         143.9064  140.0342  165.2707 C.ar    1  UNL1        0.1420
     10 F         143.5659  138.6031  165.5637 F       1  UNL1       -0.2041
     11 C         139.8011  140.3194  167.8364 C.ar    1  UNL1       -0.0001
     12 C         138.7349  139.2964  167.5778 C.ar    1  UNL1        0.0031
     13 C         137.7363  138.9669  168.6474 C.ar    1  UNL1        0.0366
     14 C         137.8039  139.6604  169.9758 C.ar    1  UNL1        0.1337
     15 O         136.8053  139.3308  171.0455 O.3     1  UNL1       -0.5055
     16 C         138.8700  140.6833  170.2345 C.ar    1  UNL1        0.0366
     17 C         139.8687  141.0128  169.1648 C.ar    1  UNL1        0.0031
     18 H         136.1393  138.6918  170.8839 H       1  UNL1        0.2922
     19 C         139.4454  141.1652  162.5065 C.ar    1  UNL1       -0.0224
     20 C         139.9858  139.8438  162.9668 C.ar    1  UNL1       -0.0043
     21 C         140.4372  139.6717  164.3869 C.ar    1  UNL1       -0.0003
     22 C         140.3482  140.8210  165.3467 C.ar    1  UNL1       -0.0003
     23 C         139.8079  142.1424  164.8864 C.ar    1  UNL1       -0.0003
     24 C         139.3565  142.3145  163.4663 C.ar    1  UNL1       -0.0043
     25 N         138.0912  141.6815  158.2463 N.3     1  UNL1       -0.2739
     26 C         137.8517  140.3827  158.9572 C.3     1  UNL1        0.0724
     27 C         138.3031  140.2106  160.3773 C.3     1  UNL1        0.0217
     28 C         138.9940  141.3373  161.0864 C.3     1  UNL1        0.0251
     29 C         139.2336  142.6362  160.3755 C.3     1  UNL1        0.0217
     30 C         138.7822  142.8083  158.9554 C.3     1  UNL1        0.0724
     31 C         136.3933  141.1703  156.3474 C.3     1  UNL1        0.0173
     32 C         137.6398  141.8536  156.8262 C.3     1  UNL1        0.0576
     33 C         138.4349  142.7090  155.8849 C.3     1  UNL1        0.0173
     34 C         142.7010  140.6342  168.5372 C.3     1  UNL1        0.0290
     35 C         143.4286  141.7463  169.2329 C.3     1  UNL1        0.0364
     36 C         142.7033  142.6185  170.2143 C.3     1  UNL1        0.1375
     37 O         143.4455  143.6892  170.9576 O.3     1  UNL1       -0.3820
     38 H         144.0937  143.2802  171.5521 H       1  UNL1        0.2104
@<TRIPOS>BOND
     1    31    32    1
     2    32    33    1
     3    32    25    1
     4    25    26    1
     5    26    27    1
     6    27    28    1
     7    28    19    1
     8    19    20   ar
     9    20    21   ar
    10    21    22   ar
    11    22     1    1
    12     1     2    2
    13     2    34    1
    14    34    35    1
    15    35    36    1
    16    36    37    1
    17     2     3    1
    18     3     4   ar
    19     4     5   ar
    20     5     6   ar
    21     6     7    1
    22     6     8   ar
    23     8     9   ar
    24     9    10    1
    25     1    11    1
    26    11    12   ar
    27    12    13   ar
    28    13    14   ar
    29    14    15    1
    30    14    16   ar
    31    16    17   ar
    32    22    23   ar
    33    23    24   ar
    34    28    29    1
    35    29    30    1
    36    30    25    1
    37    24    19   ar
    38     9     3   ar
    39    17    11   ar
    40    37    38    1
    41    15    18    1
@<TRIPOS>MOLECULE
*****
 38 41 0 0 0
SMALL
GASTEIGER

@<TRIPOS>ATOM
      1 C         140.4359  139.8903  164.0062 C.2     1  UNL1       -0.0039
      2 C         141.8723  140.1069  164.3801 C.2     1  UNL1       -0.0199
      3 C         142.8067  140.7725  163.4137 C.ar    1  UNL1        0.0237
      4 C         143.5910  139.9455  162.4384 C.ar    1  UNL1        0.0042
      5 C         144.5254  140.6110  161.4720 C.ar    1  UNL1        0.0298
      6 C         144.6756  142.1034  161.4808 C.ar    1  UNL1        0.1424
      7 F         145.6100  142.7689  160.5144 F       1  UNL1       -0.2041
      8 C         143.8914  142.9304  162.4561 C.ar    1  UNL1        0.0592
      9 C         142.9569  142.2649  163.4225 C.ar    1  UNL1        0.1420
     10 F         142.1727  143.0918  164.3978 F       1  UNL1       -0.2041
     11 C         139.5015  139.2248  164.9726 C.ar    1  UNL1       -0.0001
     12 C         138.9082  140.0106  166.1042 C.ar    1  UNL1        0.0031
     13 C         137.9738  139.3451  167.0706 C.ar    1  UNL1        0.0366
     14 C         137.6328  137.8938  166.9055 C.ar    1  UNL1        0.1337
     15 O         136.6983  137.2283  167.8720 O.3     1  UNL1       -0.5055
     16 C         138.2261  137.1079  165.7740 C.ar    1  UNL1        0.0366
     17 C         139.1605  137.7734  164.8075 C.ar    1  UNL1        0.0031
     18 H         136.3277  137.7192  168.5789 H       1  UNL1        0.2922
     19 C         138.9299  141.2369  159.9852 C.ar    1  UNL1       -0.0224
     20 C         139.5008  139.8595  160.1494 C.ar    1  UNL1       -0.0043
     21 C         140.0028  139.4107  161.4898 C.ar    1  UNL1       -0.0003
     22 C         139.9339  140.3391  162.6658 C.ar    1  UNL1       -0.0003
     23 C         139.3631  141.7165  162.5016 C.ar    1  UNL1       -0.0003
     24 C         138.8610  142.1653  161.1612 C.ar    1  UNL1       -0.0043
     25 N         137.4239  142.5835  155.9641 N.3     1  UNL1       -0.2739
     26 C         138.4847  143.3740  156.6709 C.3     1  UNL1        0.0724
     27 C         138.9867  142.9252  158.0112 C.3     1  UNL1        0.0217
     28 C         138.4279  141.6857  158.6448 C.3     1  UNL1        0.0251
     29 C         137.3670  140.8952  157.9381 C.3     1  UNL1        0.0217
     30 C         136.8650  141.3440  156.5977 C.3     1  UNL1        0.0724
     31 C         136.9975  144.4807  154.2412 C.3     1  UNL1        0.0173
     32 C         136.9219  143.0323  154.6238 C.3     1  UNL1        0.0576
     33 C         136.3443  142.0328  153.6661 C.3     1  UNL1        0.0173
     34 C         142.3743  139.6581  165.7204 C.3     1  UNL1        0.0290
     35 C         142.5826  140.6599  166.8173 C.3     1  UNL1        0.0364
     36 C         142.4524  140.2399  168.2514 C.3     1  UNL1        0.1375
     37 O         143.0092  138.9214  168.7002 O.3     1  UNL1       -0.3820
     38 H         142.5178  138.2013  168.2749 H       1  UNL1        0.2104
@<TRIPOS>BOND
     1    31    32    1
     2    32    33    1
     3    32    25    1
     4    25    26    1
     5    26    27    1
     6    27    28    1
     7    28    19    1
     8    19    20   ar
     9    20    21   ar
    10    21    22   ar
    11    22     1    1
    12     1     2    2
    13     2    34    1
    14    34    35    1
    15    35    36    1
    16    36    37    1
    17     2     3    1
    18     3     4   ar
    19     4     5   ar
    20     5     6   ar
    21     6     7    1
    22     6     8   ar
    23     8     9   ar
    24     9    10    1
    25     1    11    1
    26    11    12   ar
    27    12    13   ar
    28    13    14   ar
    29    14    15    1
    30    14    16   ar
    31    16    17   ar
    32    22    23   ar
    33    23    24   ar
    34    28    29    1
    35    29    30    1
    36    30    25    1
    37    24    19   ar
    38     9     3   ar
    39    17    11   ar
    40    37    38    1
    41    15    18    1
