@<TRIPOS>MOLECULE
*****
 37 41 0 0 0
SMALL
GASTEIGER

@<TRIPOS>ATOM
      1 N         140.9795  143.7130  159.6855 N.am    1  UNL1       -0.2681
      2 C         140.2713  144.5987  160.6672 C.2     1  UNL1        0.3079
      3 O         139.5682  145.8351  160.1906 O.2     1  UNL1       -0.2522
      4 N         140.2661  144.2482  162.1257 N.am    1  UNL1       -0.2594
      5 C         139.5579  145.1339  163.1075 C.3     1  UNL1        0.1016
      6 C         139.5527  144.7833  164.5659 C.3     1  UNL1        0.0672
      7 C         140.2558  143.5470  165.0426 C.ar    1  UNL1        0.0614
      8 N         140.2506  143.1965  166.5011 N.ar    1  UNL1       -0.2310
      9 C         140.9536  141.9601  166.9778 C.ar    1  UNL1        0.1640
     10 N         141.6619  141.0743  165.9959 N.ar    1  UNL1       -0.2268
     11 C         141.6670  141.4249  164.5375 C.ar    1  UNL1        0.0814
     12 C         140.9640  142.6613  164.0608 C.ar    1  UNL1        0.0291
     13 C         140.9691  143.0118  162.6024 C.3     1  UNL1        0.1243
     14 H         141.4409  142.9015  159.9984 H       1  UNL1        0.1564
     15 C         142.3752  140.5392  163.5558 C.ar    1  UNL1        0.0135
     16 C         141.6343  139.4212  162.8841 C.ar    1  UNL1        0.0012
     17 C         142.3426  138.5354  161.9023 C.ar    1  UNL1        0.0000
     18 C         143.7917  138.7676  161.5922 C.ar    1  UNL1       -0.0003
     19 C         144.5326  139.8856  162.2640 C.ar    1  UNL1       -0.0042
     20 C         143.8244  140.7714  163.2457 C.ar    1  UNL1       -0.0204
     21 C         144.5653  141.8893  163.9174 C.3     1  UNL1        0.0311
     22 C         139.7791  144.1390  155.9268 C.ar    1  UNL1       -0.0210
     23 C         140.9949  144.7646  155.3101 C.ar    1  UNL1       -0.0042
     24 C         142.2056  145.0396  156.1519 C.ar    1  UNL1        0.0010
     25 C         142.2005  144.6891  157.6103 C.ar    1  UNL1        0.0147
     26 C         140.9847  144.0635  158.2270 C.ar    1  UNL1        0.0513
     27 C         139.7740  143.7885  157.3852 C.ar    1  UNL1        0.0104
     28 C         137.5194  144.9220  154.9115 C.3     1  UNL1        0.0050
     29 C         138.5684  143.8640  155.0851 C.3     1  UNL1        0.0264
     30 C         140.9485  141.6095  168.4362 C.ar    1  UNL1        0.0645
     31 C         141.8387  142.3510  169.3890 C.ar    1  UNL1        0.1026
     32 N         141.8336  142.0004  170.8474 N.ar    1  UNL1       -0.2422
     33 C         140.9382  140.9084  171.3531 C.ar    1  UNL1        0.0996
     34 C         140.0480  140.1669  170.4004 C.ar    1  UNL1        0.0311
     35 C         140.0531  140.5175  168.9419 C.ar    1  UNL1        0.0744
     36 C         139.1629  139.7760  167.9892 C.1     1  UNL1        0.1006
     37 N         138.2726  139.0346  167.0364 N.1     1  UNL1       -0.1908
@<TRIPOS>BOND
     1    28    29    1
     2    29    22    1
     3    22    23   ar
     4    23    24   ar
     5    24    25   ar
     6    25    26   ar
     7    26     1    1
     8     1     2   am
     9     2     3    2
    10     2     4   am
    11     4     5    1
    12     5     6    1
    13     6     7    1
    14     7     8   ar
    15     8     9   ar
    16     9    30    1
    17    30    31   ar
    18    31    32   ar
    19    32    33   ar
    20    33    34   ar
    21    34    35   ar
    22    35    36    1
    23    36    37    3
    24     9    10   ar
    25    10    11   ar
    26    11    15    1
    27    15    16   ar
    28    16    17   ar
    29    17    18   ar
    30    18    19   ar
    31    19    20   ar
    32    20    21    1
    33    11    12   ar
    34    12    13    1
    35    26    27   ar
    36    27    22   ar
    37    13     4    1
    38    12     7   ar
    39    35    30   ar
    40    20    15   ar
    41     1    14    1
@<TRIPOS>MOLECULE
*****
 37 41 0 0 0
SMALL
GASTEIGER

@<TRIPOS>ATOM
      1 N         141.1262  144.2477  160.2372 N.am    1  UNL1       -0.2681
      2 C         140.2699  144.9542  161.2460 C.2     1  UNL1        0.3079
      3 O         139.5166  146.1912  160.8555 O.2     1  UNL1       -0.2522
      4 N         140.1669  144.4237  162.6454 N.am    1  UNL1       -0.2594
      5 C         139.3107  145.1302  163.6541 C.3     1  UNL1        0.1016
      6 C         139.2077  144.5997  165.0534 C.3     1  UNL1        0.0672
      7 C         139.9610  143.3628  165.4439 C.ar    1  UNL1        0.0614
      8 N         139.8581  142.8323  166.8432 N.ar    1  UNL1       -0.2310
      9 C         140.6114  141.5953  167.2337 C.ar    1  UNL1        0.1640
     10 N         141.4677  140.8889  166.2248 N.ar    1  UNL1       -0.2268
     11 C         141.5706  141.4194  164.8255 C.ar    1  UNL1        0.0814
     12 C         140.8173  142.6563  164.4351 C.ar    1  UNL1        0.0291
     13 C         140.9202  143.1868  163.0358 C.3     1  UNL1        0.1243
     14 H         141.6206  143.4359  160.4935 H       1  UNL1        0.1564
     15 C         142.4269  140.7129  163.8168 C.ar    1  UNL1        0.0135
     16 C         141.8430  139.6201  162.9712 C.ar    1  UNL1        0.0012
     17 C         142.6993  138.9136  161.9624 C.ar    1  UNL1        0.0000
     18 C         144.1395  139.2999  161.7992 C.ar    1  UNL1       -0.0003
     19 C         144.7234  140.3927  162.6447 C.ar    1  UNL1       -0.0042
     20 C         143.8671  141.0992  163.6535 C.ar    1  UNL1       -0.0204
     21 C         144.4510  142.1919  164.4990 C.3     1  UNL1        0.0311
     22 C         140.2711  146.2242  156.9037 C.ar    1  UNL1       -0.0210
     23 C         141.4350  145.8392  156.0394 C.ar    1  UNL1       -0.0042
     24 C         142.4959  144.9236  156.5743 C.ar    1  UNL1        0.0010
     25 C         142.3930  144.3931  157.9736 C.ar    1  UNL1        0.0147
     26 C         141.2291  144.7782  158.8379 C.ar    1  UNL1        0.0513
     27 C         140.1682  145.6937  158.3029 C.ar    1  UNL1        0.0104
     28 C         139.3500  147.7287  154.9964 C.3     1  UNL1        0.0050
     29 C         139.2101  147.1398  156.3687 C.3     1  UNL1        0.0264
     30 C         140.5085  141.0649  168.6329 C.ar    1  UNL1        0.0645
     31 C         139.2852  140.3092  169.0605 C.ar    1  UNL1        0.1026
     32 N         139.1823  139.7787  170.4597 N.ar    1  UNL1       -0.2422
     33 C         140.3025  140.0039  171.4315 C.ar    1  UNL1        0.0996
     34 C         141.5257  140.7595  171.0040 C.ar    1  UNL1        0.0311
     35 C         141.6287  141.2900  169.6047 C.ar    1  UNL1        0.0744
     36 C         142.8519  142.0456  169.1772 C.1     1  UNL1        0.1006
     37 N         144.0752  142.8013  168.7497 N.1     1  UNL1       -0.1908
@<TRIPOS>BOND
     1    28    29    1
     2    29    22    1
     3    22    23   ar
     4    23    24   ar
     5    24    25   ar
     6    25    26   ar
     7    26     1    1
     8     1     2   am
     9     2     3    2
    10     2     4   am
    11     4     5    1
    12     5     6    1
    13     6     7    1
    14     7     8   ar
    15     8     9   ar
    16     9    30    1
    17    30    31   ar
    18    31    32   ar
    19    32    33   ar
    20    33    34   ar
    21    34    35   ar
    22    35    36    1
    23    36    37    3
    24     9    10   ar
    25    10    11   ar
    26    11    15    1
    27    15    16   ar
    28    16    17   ar
    29    17    18   ar
    30    18    19   ar
    31    19    20   ar
    32    20    21    1
    33    11    12   ar
    34    12    13    1
    35    26    27   ar
    36    27    22   ar
    37    13     4    1
    38    12     7   ar
    39    35    30   ar
    40    20    15   ar
    41     1    14    1
@<TRIPOS>MOLECULE
*****
 37 41 0 0 0
SMALL
GASTEIGER

@<TRIPOS>ATOM
      1 N         143.0418  140.9317  159.8152 N.am    1  UNL1       -0.2681
      2 C         143.6450  139.9393  160.7645 C.2     1  UNL1        0.3079
      3 O         144.4930  138.8189  160.2394 O.2     1  UNL1       -0.2522
      4 N         143.4002  140.0671  162.2389 N.am    1  UNL1       -0.2594
      5 C         144.0034  139.0746  163.1881 C.3     1  UNL1        0.1016
      6 C         143.7586  139.2024  164.6624 C.3     1  UNL1        0.0672
      7 C         142.9105  140.3228  165.1875 C.ar    1  UNL1        0.0614
      8 N         142.6657  140.4506  166.6619 N.ar    1  UNL1       -0.2310
      9 C         141.8177  141.5709  167.1870 C.ar    1  UNL1        0.1640
     10 N         141.2145  142.5634  166.2377 N.ar    1  UNL1       -0.2268
     11 C         141.4593  142.4356  164.7634 C.ar    1  UNL1        0.0814
     12 C         142.3073  141.3152  164.2383 C.ar    1  UNL1        0.0291
     13 C         142.5521  141.1874  162.7640 C.3     1  UNL1        0.1243
     14 H         142.4852  141.6670  160.1599 H       1  UNL1        0.1564
     15 C         140.8561  143.4280  163.8142 C.ar    1  UNL1        0.0135
     16 C         139.4862  143.1904  163.2511 C.ar    1  UNL1        0.0012
     17 C         138.8830  144.1830  162.3018 C.ar    1  UNL1        0.0000
     18 C         139.6497  145.4131  161.9157 C.ar    1  UNL1       -0.0003
     19 C         141.0195  145.6507  162.4787 C.ar    1  UNL1       -0.0042
     20 C         141.6227  144.6582  163.4280 C.ar    1  UNL1       -0.0204
     21 C         142.9926  144.8958  163.9911 C.3     1  UNL1        0.0311
     22 C         144.8375  141.1254  156.2814 C.ar    1  UNL1       -0.0210
     23 C         143.7763  140.5484  155.3922 C.ar    1  UNL1       -0.0042
     24 C         142.4702  140.0991  155.9773 C.ar    1  UNL1        0.0010
     25 C         142.2254  140.2269  157.4516 C.ar    1  UNL1        0.0147
     26 C         143.2866  140.8039  158.3408 C.ar    1  UNL1        0.0513
     27 C         144.5927  141.2532  157.7557 C.ar    1  UNL1        0.0104
     28 C         147.0770  142.4228  156.5083 C.3     1  UNL1        0.0050
     29 C         146.1436  141.5747  155.6963 C.3     1  UNL1        0.0264
     30 C         141.5729  141.6987  168.6613 C.ar    1  UNL1        0.0645
     31 C         142.4621  142.5717  169.4964 C.ar    1  UNL1        0.1026
     32 N         142.2173  142.6996  170.9707 N.ar    1  UNL1       -0.2422
     33 C         141.0832  141.9545  171.6101 C.ar    1  UNL1        0.0996
     34 C         140.1940  141.0815  170.7751 C.ar    1  UNL1        0.0311
     35 C         140.4388  140.9536  169.3007 C.ar    1  UNL1        0.0744
     36 C         139.5496  140.0807  168.4657 C.1     1  UNL1        0.1006
     37 N         138.6604  139.2077  167.6307 N.1     1  UNL1       -0.1908
@<TRIPOS>BOND
     1    28    29    1
     2    29    22    1
     3    22    23   ar
     4    23    24   ar
     5    24    25   ar
     6    25    26   ar
     7    26     1    1
     8     1     2   am
     9     2     3    2
    10     2     4   am
    11     4     5    1
    12     5     6    1
    13     6     7    1
    14     7     8   ar
    15     8     9   ar
    16     9    30    1
    17    30    31   ar
    18    31    32   ar
    19    32    33   ar
    20    33    34   ar
    21    34    35   ar
    22    35    36    1
    23    36    37    3
    24     9    10   ar
    25    10    11   ar
    26    11    15    1
    27    15    16   ar
    28    16    17   ar
    29    17    18   ar
    30    18    19   ar
    31    19    20   ar
    32    20    21    1
    33    11    12   ar
    34    12    13    1
    35    26    27   ar
    36    27    22   ar
    37    13     4    1
    38    12     7   ar
    39    35    30   ar
    40    20    15   ar
    41     1    14    1
@<TRIPOS>MOLECULE
*****
 37 41 0 0 0
SMALL
GASTEIGER

@<TRIPOS>ATOM
      1 N         140.5002  139.9780  164.5666 N.am    1  UNL1       -0.2681
      2 C         141.2797  138.8775  163.9099 C.2     1  UNL1        0.3079
      3 O         141.2614  137.4951  164.4917 O.2     1  UNL1       -0.2522
      4 N         142.0774  139.1594  162.6712 N.am    1  UNL1       -0.2594
      5 C         142.8569  138.0589  162.0145 C.3     1  UNL1        0.1016
      6 C         143.6546  138.3409  160.7759 C.3     1  UNL1        0.0672
      7 C         143.6728  139.7233  160.1940 C.ar    1  UNL1        0.0614
      8 N         144.4706  140.0053  158.9554 N.ar    1  UNL1       -0.2310
      9 C         144.4888  141.3877  158.3735 C.ar    1  UNL1        0.1640
     10 N         143.7093  142.4882  159.0304 N.ar    1  UNL1       -0.2268
     11 C         142.9116  142.2063  160.2689 C.ar    1  UNL1        0.0814
     12 C         142.8934  140.8238  160.8508 C.ar    1  UNL1        0.0291
     13 C         142.0957  140.5419  162.0894 C.3     1  UNL1        0.1243
     14 H         140.5122  140.8853  164.1847 H       1  UNL1        0.1564
     15 C         142.1321  143.3067  160.9257 C.ar    1  UNL1        0.0135
     16 C         140.7546  143.6445  160.4377 C.ar    1  UNL1        0.0012
     17 C         139.9751  144.7451  161.0945 C.ar    1  UNL1        0.0000
     18 C         140.5732  145.5078  162.2393 C.ar    1  UNL1       -0.0003
     19 C         141.9508  145.1700  162.7273 C.ar    1  UNL1       -0.0042
     20 C         142.7303  144.0695  162.0705 C.ar    1  UNL1       -0.0204
     21 C         144.1078  143.7317  162.5585 C.3     1  UNL1        0.0311
     22 C         139.3333  139.9927  168.3598 C.ar    1  UNL1       -0.0210
     23 C         138.1071  139.1323  168.2825 C.ar    1  UNL1       -0.0042
     24 C         137.6786  138.5537  166.9666 C.ar    1  UNL1        0.0010
     25 C         138.4763  138.8355  165.7280 C.ar    1  UNL1        0.0147
     26 C         139.7025  139.6960  165.8053 C.ar    1  UNL1        0.0513
     27 C         140.1310  140.2746  167.1212 C.ar    1  UNL1        0.0104
     28 C         139.9751  142.0499  169.8111 C.3     1  UNL1        0.0050
     29 C         139.7618  140.5713  169.6757 C.3     1  UNL1        0.0264
     30 C         145.2865  141.6697  157.1350 C.ar    1  UNL1        0.0645
     31 C         146.5282  142.5072  157.2170 C.ar    1  UNL1        0.1026
     32 N         147.3259  142.7892  155.9785 N.ar    1  UNL1       -0.2422
     33 C         146.8819  142.2337  154.6578 C.ar    1  UNL1        0.0996
     34 C         145.6403  141.3961  154.5756 C.ar    1  UNL1        0.0311
     35 C         144.8425  141.1141  155.8143 C.ar    1  UNL1        0.0744
     36 C         143.6009  140.2766  155.7321 C.1     1  UNL1        0.1006
     37 N         142.3591  139.4390  155.6501 N.1     1  UNL1       -0.1908
@<TRIPOS>BOND
     1    28    29    1
     2    29    22    1
     3    22    23   ar
     4    23    24   ar
     5    24    25   ar
     6    25    26   ar
     7    26     1    1
     8     1     2   am
     9     2     3    2
    10     2     4   am
    11     4     5    1
    12     5     6    1
    13     6     7    1
    14     7     8   ar
    15     8     9   ar
    16     9    30    1
    17    30    31   ar
    18    31    32   ar
    19    32    33   ar
    20    33    34   ar
    21    34    35   ar
    22    35    36    1
    23    36    37    3
    24     9    10   ar
    25    10    11   ar
    26    11    15    1
    27    15    16   ar
    28    16    17   ar
    29    17    18   ar
    30    18    19   ar
    31    19    20   ar
    32    20    21    1
    33    11    12   ar
    34    12    13    1
    35    26    27   ar
    36    27    22   ar
    37    13     4    1
    38    12     7   ar
    39    35    30   ar
    40    20    15   ar
    41     1    14    1
@<TRIPOS>MOLECULE
*****
 37 41 0 0 0
SMALL
GASTEIGER

@<TRIPOS>ATOM
      1 N         140.3680  140.4149  166.0189 N.am    1  UNL1       -0.2681
      2 C         139.3105  139.7624  165.1787 C.2     1  UNL1        0.3079
      3 O         137.9501  139.5018  165.7543 O.2     1  UNL1       -0.2522
      4 N         139.6135  139.3705  163.7628 N.am    1  UNL1       -0.2594
      5 C         138.5560  138.7180  162.9226 C.3     1  UNL1        0.1016
      6 C         138.8590  138.3261  161.5068 C.3     1  UNL1        0.0672
      7 C         140.2194  138.5867  160.9312 C.ar    1  UNL1        0.0614
      8 N         140.5224  138.1948  159.5153 N.ar    1  UNL1       -0.2310
      9 C         141.8828  138.4554  158.9397 C.ar    1  UNL1        0.1640
     10 N         142.9403  139.1080  159.7800 N.ar    1  UNL1       -0.2268
     11 C         142.6373  139.4998  161.1958 C.ar    1  UNL1        0.0814
     12 C         141.2769  139.2392  161.7714 C.ar    1  UNL1        0.0291
     13 C         140.9739  139.6311  163.1872 C.3     1  UNL1        0.1243
     14 H         141.2608  140.5859  165.6411 H       1  UNL1        0.1564
     15 C         143.6947  140.1523  162.0360 C.ar    1  UNL1        0.0135
     16 C         144.2786  139.4208  163.2082 C.ar    1  UNL1        0.0012
     17 C         145.3361  140.0734  164.0484 C.ar    1  UNL1        0.0000
     18 C         145.8097  141.4574  163.7164 C.ar    1  UNL1       -0.0003
     19 C         145.2258  142.1889  162.5443 C.ar    1  UNL1       -0.0042
     20 C         144.1684  141.5364  161.7041 C.ar    1  UNL1       -0.0204
     21 C         143.5845  142.2679  160.5319 C.3     1  UNL1        0.0311
     22 C         140.2996  142.4851  169.4041 C.ar    1  UNL1       -0.0210
     23 C         139.4592  141.5907  170.2665 C.ar    1  UNL1       -0.0042
     24 C         138.9217  140.3043  169.7130 C.ar    1  UNL1        0.0010
     25 C         139.2246  139.9124  168.2972 C.ar    1  UNL1        0.0147
     26 C         140.0650  140.8068  167.4348 C.ar    1  UNL1        0.0513
     27 C         140.6025  142.0932  167.9883 C.ar    1  UNL1        0.0104
     28 C         139.9001  144.8947  170.2896 C.3     1  UNL1        0.0050
     29 C         140.8371  143.7715  169.9576 C.3     1  UNL1        0.0264
     30 C         142.1858  138.0636  157.5238 C.ar    1  UNL1        0.0645
     31 C         142.7307  136.6986  157.2236 C.ar    1  UNL1        0.1026
     32 N         143.0337  136.3067  155.8078 N.ar    1  UNL1       -0.2422
     33 C         142.7917  137.2797  154.6921 C.ar    1  UNL1        0.0996
     34 C         142.2468  138.6446  154.9923 C.ar    1  UNL1        0.0311
     35 C         141.9438  139.0366  156.4082 C.ar    1  UNL1        0.0744
     36 C         141.3989  140.4014  156.7083 C.1     1  UNL1        0.1006
     37 N         140.8540  141.7664  157.0084 N.1     1  UNL1       -0.1908
@<TRIPOS>BOND
     1    28    29    1
     2    29    22    1
     3    22    23   ar
     4    23    24   ar
     5    24    25   ar
     6    25    26   ar
     7    26     1    1
     8     1     2   am
     9     2     3    2
    10     2     4   am
    11     4     5    1
    12     5     6    1
    13     6     7    1
    14     7     8   ar
    15     8     9   ar
    16     9    30    1
    17    30    31   ar
    18    31    32   ar
    19    32    33   ar
    20    33    34   ar
    21    34    35   ar
    22    35    36    1
    23    36    37    3
    24     9    10   ar
    25    10    11   ar
    26    11    15    1
    27    15    16   ar
    28    16    17   ar
    29    17    18   ar
    30    18    19   ar
    31    19    20   ar
    32    20    21    1
    33    11    12   ar
    34    12    13    1
    35    26    27   ar
    36    27    22   ar
    37    13     4    1
    38    12     7   ar
    39    35    30   ar
    40    20    15   ar
    41     1    14    1
@<TRIPOS>MOLECULE
*****
 37 41 0 0 0
SMALL
GASTEIGER

@<TRIPOS>ATOM
      1 N         140.6898  143.0310  159.5798 N.am    1  UNL1       -0.2681
      2 C         140.1324  144.0763  160.4999 C.2     1  UNL1        0.3079
      3 O         139.5273  145.3272  159.9350 O.2     1  UNL1       -0.2522
      4 N         140.1802  143.8708  161.9851 N.am    1  UNL1       -0.2594
      5 C         139.6228  144.9161  162.9052 C.3     1  UNL1        0.1016
      6 C         139.6705  144.7106  164.3902 C.3     1  UNL1        0.0672
      7 C         140.2757  143.4597  164.9552 C.ar    1  UNL1        0.0614
      8 N         140.3235  143.2542  166.4403 N.ar    1  UNL1       -0.2310
      9 C         140.9286  142.0034  167.0053 C.ar    1  UNL1        0.1640
     10 N         141.4860  140.9580  166.0851 N.ar    1  UNL1       -0.2268
     11 C         141.4383  141.1636  164.6000 C.ar    1  UNL1        0.0814
     12 C         140.8331  142.4144  164.0351 C.ar    1  UNL1        0.0291
     13 C         140.7853  142.6200  162.5500 C.3     1  UNL1        0.1243
     14 H         141.0870  142.2101  159.9506 H       1  UNL1        0.1564
     15 C         141.9957  140.1183  163.6799 C.ar    1  UNL1        0.0135
     16 C         143.4213  140.2057  163.2216 C.ar    1  UNL1        0.0012
     17 C         143.9787  139.1603  162.3015 C.ar    1  UNL1        0.0000
     18 C         143.1105  138.0276  161.8397 C.ar    1  UNL1       -0.0003
     19 C         141.6849  137.9403  162.2980 C.ar    1  UNL1       -0.0042
     20 C         141.1275  138.9856  163.2181 C.ar    1  UNL1       -0.0204
     21 C         139.7019  138.8982  163.6764 C.3     1  UNL1        0.0311
     22 C         141.7647  144.0551  155.8993 C.ar    1  UNL1       -0.0210
     23 C         140.5467  143.6476  155.1246 C.ar    1  UNL1       -0.0042
     24 C         139.3764  143.0345  155.8349 C.ar    1  UNL1        0.0010
     25 C         139.4241  142.8290  157.3199 C.ar    1  UNL1        0.0147
     26 C         140.6421  143.2366  158.0947 C.ar    1  UNL1        0.0513
     27 C         141.8124  143.8496  157.3844 C.ar    1  UNL1        0.0104
     28 C         142.8316  145.0140  153.7332 C.3     1  UNL1        0.0050
     29 C         142.9350  144.6682  155.1891 C.3     1  UNL1        0.0264
     30 C         140.9764  141.7978  168.4903 C.ar    1  UNL1        0.0645
     31 C         141.8667  142.6573  169.3382 C.ar    1  UNL1        0.1026
     32 N         141.9144  142.4517  170.8233 N.ar    1  UNL1       -0.2422
     33 C         141.0719  141.3868  171.4605 C.ar    1  UNL1        0.0996
     34 C         140.1817  140.5273  170.6127 C.ar    1  UNL1        0.0311
     35 C         140.1339  140.7329  169.1276 C.ar    1  UNL1        0.0744
     36 C         139.2436  139.8735  168.2798 C.1     1  UNL1        0.1006
     37 N         138.3534  139.0140  167.4319 N.1     1  UNL1       -0.1908
@<TRIPOS>BOND
     1    28    29    1
     2    29    22    1
     3    22    23   ar
     4    23    24   ar
     5    24    25   ar
     6    25    26   ar
     7    26     1    1
     8     1     2   am
     9     2     3    2
    10     2     4   am
    11     4     5    1
    12     5     6    1
    13     6     7    1
    14     7     8   ar
    15     8     9   ar
    16     9    30    1
    17    30    31   ar
    18    31    32   ar
    19    32    33   ar
    20    33    34   ar
    21    34    35   ar
    22    35    36    1
    23    36    37    3
    24     9    10   ar
    25    10    11   ar
    26    11    15    1
    27    15    16   ar
    28    16    17   ar
    29    17    18   ar
    30    18    19   ar
    31    19    20   ar
    32    20    21    1
    33    11    12   ar
    34    12    13    1
    35    26    27   ar
    36    27    22   ar
    37    13     4    1
    38    12     7   ar
    39    35    30   ar
    40    20    15   ar
    41     1    14    1
@<TRIPOS>MOLECULE
*****
 37 41 0 0 0
SMALL
GASTEIGER

@<TRIPOS>ATOM
      1 N         139.2281  140.5474  159.4558 N.am    1  UNL1       -0.2681
      2 C         139.1748  139.2649  160.2319 C.2     1  UNL1        0.3079
      3 O         138.8805  137.9737  159.5275 O.2     1  UNL1       -0.2522
      4 N         139.4158  139.2736  161.7125 N.am    1  UNL1       -0.2594
      5 C         139.3625  137.9911  162.4885 C.3     1  UNL1        0.1016
      6 C         139.6035  137.9998  163.9690 C.3     1  UNL1        0.0672
      7 C         139.8978  139.2911  164.6734 C.ar    1  UNL1        0.0614
      8 N         140.1388  139.2997  166.1539 N.ar    1  UNL1       -0.2310
      9 C         140.4332  140.5910  166.8583 C.ar    1  UNL1        0.1640
     10 N         140.4865  141.8735  166.0821 N.ar    1  UNL1       -0.2268
     11 C         140.2455  141.8648  164.6017 C.ar    1  UNL1        0.0814
     12 C         139.9511  140.5735  163.8973 C.ar    1  UNL1        0.0291
     13 C         139.7101  140.5648  162.4168 C.3     1  UNL1        0.1243
     14 H         139.4213  141.3949  159.9182 H       1  UNL1        0.1564
     15 C         140.2988  143.1472  163.8256 C.ar    1  UNL1        0.0135
     16 C         141.5946  143.6085  163.2272 C.ar    1  UNL1        0.0012
     17 C         141.6478  144.8910  162.4510 C.ar    1  UNL1        0.0000
     18 C         140.4053  145.7123  162.2734 C.ar    1  UNL1       -0.0003
     19 C         139.1095  145.2511  162.8718 C.ar    1  UNL1       -0.0042
     20 C         139.0562  143.9686  163.6479 C.ar    1  UNL1       -0.0204
     21 C         137.7604  143.5074  164.2463 C.3     1  UNL1        0.0311
     22 C         137.4070  140.9311  155.9506 C.ar    1  UNL1       -0.0210
     23 C         138.5050  140.5214  155.0144 C.ar    1  UNL1       -0.0042
     24 C         139.8440  140.1204  155.5586 C.ar    1  UNL1        0.0010
     25 C         140.0851  140.1291  157.0391 C.ar    1  UNL1        0.0147
     26 C         138.9871  140.5387  157.9753 C.ar    1  UNL1        0.0513
     27 C         137.6481  140.9397  157.4311 C.ar    1  UNL1        0.0104
     28 C         135.9783  142.3584  154.3162 C.3     1  UNL1        0.0050
     29 C         136.0680  141.3321  155.4064 C.3     1  UNL1        0.0264
     30 C         140.6742  140.5997  168.3387 C.ar    1  UNL1        0.0645
     31 C         139.7365  141.3386  169.2469 C.ar    1  UNL1        0.1026
     32 N         139.9775  141.3473  170.7274 N.ar    1  UNL1       -0.2422
     33 C         141.1562  140.6172  171.2997 C.ar    1  UNL1        0.0996
     34 C         142.0938  139.8783  170.3916 C.ar    1  UNL1        0.0311
     35 C         141.8529  139.8695  168.9111 C.ar    1  UNL1        0.0744
     36 C         142.7905  139.1306  168.0029 C.1     1  UNL1        0.1006
     37 N         143.7283  138.3917  167.0948 N.1     1  UNL1       -0.1908
@<TRIPOS>BOND
     1    28    29    1
     2    29    22    1
     3    22    23   ar
     4    23    24   ar
     5    24    25   ar
     6    25    26   ar
     7    26     1    1
     8     1     2   am
     9     2     3    2
    10     2     4   am
    11     4     5    1
    12     5     6    1
    13     6     7    1
    14     7     8   ar
    15     8     9   ar
    16     9    30    1
    17    30    31   ar
    18    31    32   ar
    19    32    33   ar
    20    33    34   ar
    21    34    35   ar
    22    35    36    1
    23    36    37    3
    24     9    10   ar
    25    10    11   ar
    26    11    15    1
    27    15    16   ar
    28    16    17   ar
    29    17    18   ar
    30    18    19   ar
    31    19    20   ar
    32    20    21    1
    33    11    12   ar
    34    12    13    1
    35    26    27   ar
    36    27    22   ar
    37    13     4    1
    38    12     7   ar
    39    35    30   ar
    40    20    15   ar
    41     1    14    1
@<TRIPOS>MOLECULE
*****
 37 41 0 0 0
SMALL
GASTEIGER

@<TRIPOS>ATOM
      1 N         142.2057  140.1472  165.8406 N.am    1  UNL1       -0.2681
      2 C         142.5034  138.9745  164.9541 C.2     1  UNL1        0.3079
      3 O         142.4459  137.5817  165.5082 O.2     1  UNL1       -0.2522
      4 N         142.8586  139.1944  163.5134 N.am    1  UNL1       -0.2594
      5 C         143.1562  138.0216  162.6268 C.3     1  UNL1        0.1016
      6 C         143.5114  138.2416  161.1862 C.3     1  UNL1        0.0672
      7 C         143.5688  139.6343  160.6321 C.ar    1  UNL1        0.0614
      8 N         143.9240  139.8543  159.1914 N.ar    1  UNL1       -0.2310
      9 C         143.9814  141.2470  158.6373 C.ar    1  UNL1        0.1640
     10 N         143.6837  142.4198  159.5240 N.ar    1  UNL1       -0.2268
     11 C         143.3286  142.1998  160.9646 C.ar    1  UNL1        0.0814
     12 C         143.2712  140.8071  161.5187 C.ar    1  UNL1        0.0291
     13 C         142.9160  140.5871  162.9593 C.3     1  UNL1        0.1243
     14 H         142.2435  141.0613  165.4770 H       1  UNL1        0.1564
     15 C         143.0309  143.3726  161.8511 C.ar    1  UNL1        0.0135
     16 C         144.1356  144.0243  162.6289 C.ar    1  UNL1        0.0012
     17 C         143.8379  145.1971  163.5155 C.ar    1  UNL1        0.0000
     18 C         142.4355  145.7181  163.6242 C.ar    1  UNL1       -0.0003
     19 C         141.3309  145.0664  162.8465 C.ar    1  UNL1       -0.0042
     20 C         141.6285  143.8937  161.9599 C.ar    1  UNL1       -0.0204
     21 C         140.5238  143.2420  161.1821 C.3     1  UNL1        0.0311
     22 C         140.1647  140.1617  169.2441 C.ar    1  UNL1       -0.0210
     23 C         141.1402  139.4875  170.1626 C.ar    1  UNL1       -0.0042
     24 C         142.4710  139.0331  169.6404 C.ar    1  UNL1        0.0010
     25 C         142.8261  139.2530  168.1998 C.ar    1  UNL1        0.0147
     26 C         141.8506  139.9273  167.2813 C.ar    1  UNL1        0.0513
     27 C         140.5198  140.3816  167.8035 C.ar    1  UNL1        0.0104
     28 C         137.8617  139.6142  170.3148 C.3     1  UNL1        0.0050
     29 C         138.8339  140.6161  169.7663 C.3     1  UNL1        0.0264
     30 C         144.3366  141.4670  157.1967 C.ar    1  UNL1        0.0645
     31 C         145.7644  141.7065  156.8043 C.ar    1  UNL1        0.1026
     32 N         146.1196  141.9265  155.3637 N.ar    1  UNL1       -0.2422
     33 C         145.0469  141.9070  154.3154 C.ar    1  UNL1        0.0996
     34 C         143.6191  141.6675  154.7077 C.ar    1  UNL1        0.0311
     35 C         143.2639  141.4475  156.1484 C.ar    1  UNL1        0.0744
     36 C         141.8361  141.2080  156.5407 C.1     1  UNL1        0.1006
     37 N         140.4082  140.9684  156.9330 N.1     1  UNL1       -0.1908
@<TRIPOS>BOND
     1    28    29    1
     2    29    22    1
     3    22    23   ar
     4    23    24   ar
     5    24    25   ar
     6    25    26   ar
     7    26     1    1
     8     1     2   am
     9     2     3    2
    10     2     4   am
    11     4     5    1
    12     5     6    1
    13     6     7    1
    14     7     8   ar
    15     8     9   ar
    16     9    30    1
    17    30    31   ar
    18    31    32   ar
    19    32    33   ar
    20    33    34   ar
    21    34    35   ar
    22    35    36    1
    23    36    37    3
    24     9    10   ar
    25    10    11   ar
    26    11    15    1
    27    15    16   ar
    28    16    17   ar
    29    17    18   ar
    30    18    19   ar
    31    19    20   ar
    32    20    21    1
    33    11    12   ar
    34    12    13    1
    35    26    27   ar
    36    27    22   ar
    37    13     4    1
    38    12     7   ar
    39    35    30   ar
    40    20    15   ar
    41     1    14    1
@<TRIPOS>MOLECULE
*****
 37 41 0 0 0
SMALL
GASTEIGER

@<TRIPOS>ATOM
      1 N         140.9540  140.3062  165.9839 N.am    1  UNL1       -0.2681
      2 C         139.8917  139.4015  165.4337 C.2     1  UNL1        0.3079
      3 O         138.9973  138.6406  166.3671 O.2     1  UNL1       -0.2522
      4 N         139.7237  139.2575  163.9501 N.am    1  UNL1       -0.2594
      5 C         138.6614  138.3527  163.3999 C.3     1  UNL1        0.1016
      6 C         138.4935  138.2088  161.9163 C.3     1  UNL1        0.0672
      7 C         139.3879  138.9696  160.9829 C.ar    1  UNL1        0.0614
      8 N         139.2199  138.8257  159.4993 N.ar    1  UNL1       -0.2310
      9 C         140.1143  139.5865  158.5659 C.ar    1  UNL1        0.1640
     10 N         141.1767  140.4914  159.1162 N.ar    1  UNL1       -0.2268
     11 C         141.3446  140.6353  160.5998 C.ar    1  UNL1        0.0814
     12 C         140.4502  139.8744  161.5331 C.ar    1  UNL1        0.0291
     13 C         140.6181  140.0183  163.0167 C.3     1  UNL1        0.1243
     14 H         141.5411  140.8056  165.3713 H       1  UNL1        0.1564
     15 C         142.4069  141.5401  161.1500 C.ar    1  UNL1        0.0135
     16 C         142.0896  142.9759  161.4462 C.ar    1  UNL1        0.0012
     17 C         143.1520  143.8807  161.9965 C.ar    1  UNL1        0.0000
     18 C         144.5317  143.3496  162.2505 C.ar    1  UNL1       -0.0003
     19 C         144.8490  141.9138  161.9543 C.ar    1  UNL1       -0.0042
     20 C         143.7867  141.0090  161.4040 C.ar    1  UNL1       -0.0204
     21 C         144.1040  139.5732  161.1078 C.3     1  UNL1        0.0311
     22 C         140.6220  141.7253  169.6753 C.ar    1  UNL1       -0.0210
     23 C         141.4579  140.7382  170.4347 C.ar    1  UNL1       -0.0042
     24 C         142.1259  139.6071  169.7106 C.ar    1  UNL1        0.0010
     25 C         141.9579  139.4631  168.2270 C.ar    1  UNL1        0.0147
     26 C         141.1220  140.4502  167.4676 C.ar    1  UNL1        0.0513
     27 C         140.4540  141.5813  168.1917 C.ar    1  UNL1        0.0104
     28 C         140.3047  144.2749  170.0608 C.3     1  UNL1        0.0050
     29 C         139.9540  142.8564  170.3994 C.3     1  UNL1        0.0264
     30 C         139.9464  139.4426  157.0824 C.ar    1  UNL1        0.0645
     31 C         138.8702  140.2085  156.3715 C.ar    1  UNL1        0.1026
     32 N         138.7022  140.0646  154.8880 N.ar    1  UNL1       -0.2422
     33 C         139.6105  139.1548  154.1151 C.ar    1  UNL1        0.0996
     34 C         140.6867  138.3889  154.8258 C.ar    1  UNL1        0.0311
     35 C         140.8547  138.5328  156.3095 C.ar    1  UNL1        0.0744
     36 C         141.9308  137.7669  157.0202 C.1     1  UNL1        0.1006
     37 N         143.0071  137.0010  157.7310 N.1     1  UNL1       -0.1908
@<TRIPOS>BOND
     1    28    29    1
     2    29    22    1
     3    22    23   ar
     4    23    24   ar
     5    24    25   ar
     6    25    26   ar
     7    26     1    1
     8     1     2   am
     9     2     3    2
    10     2     4   am
    11     4     5    1
    12     5     6    1
    13     6     7    1
    14     7     8   ar
    15     8     9   ar
    16     9    30    1
    17    30    31   ar
    18    31    32   ar
    19    32    33   ar
    20    33    34   ar
    21    34    35   ar
    22    35    36    1
    23    36    37    3
    24     9    10   ar
    25    10    11   ar
    26    11    15    1
    27    15    16   ar
    28    16    17   ar
    29    17    18   ar
    30    18    19   ar
    31    19    20   ar
    32    20    21    1
    33    11    12   ar
    34    12    13    1
    35    26    27   ar
    36    27    22   ar
    37    13     4    1
    38    12     7   ar
    39    35    30   ar
    40    20    15   ar
    41     1    14    1
