@<TRIPOS>MOLECULE
*****
 33 37 0 0 0
SMALL
GASTEIGER

@<TRIPOS>ATOM
      1 C         140.4644  142.8303  166.0365 C.3     1  UNL1        0.0325
      2 C         141.6104  142.4520  165.1457 C.ar    1  UNL1       -0.0058
      3 C         142.7835  141.7058  165.7088 C.ar    1  UNL1       -0.0003
      4 C         143.9294  141.3274  164.8180 C.ar    1  UNL1       -0.0000
      5 C         143.9024  141.6952  163.3641 C.ar    1  UNL1        0.0045
      6 C         142.7294  142.4414  162.8008 C.ar    1  UNL1        0.0518
      7 C         142.7023  142.8092  161.3469 C.ar    1  UNL1        0.1704
      8 O         143.6792  142.5728  160.2334 O.2     1  UNL1       -0.4368
      9 C         143.1098  143.1729  158.9822 C.ar    1  UNL1        0.2217
     10 N         141.7811  143.7802  159.3222 N.ar    1  UNL1       -0.2060
     11 C         141.5292  143.5554  160.7838 C.ar    1  UNL1        0.1744
     12 C         140.3832  143.9338  161.6746 C.ar    1  UNL1        0.2816
     13 O         139.2101  144.6799  161.1114 O.2     1  UNL1       -0.2652
     14 N         140.4103  143.5659  163.1285 N.ar    1  UNL1       -0.2963
     15 C         141.5833  142.8198  163.6916 C.ar    1  UNL1        0.0614
     16 C         142.8106  141.3380  167.1627 C.ar    1  UNL1        0.0295
     17 C         143.2607  142.3421  168.1821 C.ar    1  UNL1        0.0331
     18 C         143.2878  141.9741  169.6361 C.ar    1  UNL1        0.1530
     19 F         143.7380  142.9782  170.6555 F       1  UNL1       -0.2029
     20 C         142.8647  140.6022  170.0706 C.ar    1  UNL1        0.0716
     21 N         142.8918  140.2344  171.5246 N.pl3   1  UNL1       -0.3552
     22 C         142.4146  139.5982  169.0512 C.ar    1  UNL1        0.0460
     23 C         142.3875  139.9661  167.5973 C.ar    1  UNL1        0.1414
     24 F         141.9373  138.9620  166.5779 F       1  UNL1       -0.2041
     25 H         143.1873  140.8934  172.1936 H       1  UNL1        0.1424
     26 H         142.6142  139.3340  171.8098 H       1  UNL1        0.1424
     27 C         143.7558  143.1668  157.6284 C.3     1  UNL1        0.1518
     28 N         145.2060  142.8089  157.4910 N.3     1  UNL1       -0.3134
     29 H         145.7765  143.5195  157.9491 H       1  UNL1        0.1193
     30 H         145.4521  142.7607  156.5023 H       1  UNL1        0.1193
     31 C         139.2642  143.9443  164.0193 C.3     1  UNL1        0.0885
     32 C         137.8747  143.6937  164.5256 C.3     1  UNL1        0.0246
     33 C         138.6689  144.8505  165.0559 C.3     1  UNL1        0.0246
@<TRIPOS>BOND
     1     1     2    1
     2     2     3   ar
     3     3    16    1
     4    16    17   ar
     5    17    18   ar
     6    18    19    1
     7    18    20   ar
     8    20    21    1
     9    20    22   ar
    10    22    23   ar
    11    23    24    1
    12     3     4   ar
    13     4     5   ar
    14     5     6   ar
    15     6     7   ar
    16     7     8   ar
    17     8     9   ar
    18     9    27    1
    19    27    28    1
    20     9    10   ar
    21    10    11   ar
    22    11    12   ar
    23    12    13    2
    24    12    14   ar
    25    14    31    1
    26    31    32    1
    27    32    33    1
    28    14    15   ar
    29    15     2   ar
    30    23    16   ar
    31    15     6   ar
    32    11     7   ar
    33    33    31    1
    34    21    25    1
    35    21    26    1
    36    28    29    1
    37    28    30    1
@<TRIPOS>MOLECULE
*****
 33 37 0 0 0
SMALL
GASTEIGER

@<TRIPOS>ATOM
      1 C         142.8266  141.4385  165.3384 C.3     1  UNL1        0.0325
      2 C         141.7346  142.2339  164.6866 C.ar    1  UNL1       -0.0058
      3 C         140.4505  142.4861  165.4198 C.ar    1  UNL1       -0.0003
      4 C         139.3584  143.2814  164.7681 C.ar    1  UNL1       -0.0000
      5 C         139.5504  143.8247  163.3832 C.ar    1  UNL1        0.0045
      6 C         140.8345  143.5726  162.6499 C.ar    1  UNL1        0.0518
      7 C         141.0265  144.1158  161.2650 C.ar    1  UNL1        0.1704
      8 O         140.1355  144.9287  160.3733 O.2     1  UNL1       -0.4368
      9 C         140.8689  145.1790  159.0890 C.ar    1  UNL1        0.2217
     10 N         142.2132  144.5207  159.1869 N.ar    1  UNL1       -0.2060
     11 C         142.3106  143.8636  160.5318 C.ar    1  UNL1        0.1744
     12 C         143.4026  143.0682  161.1836 C.ar    1  UNL1        0.2816
     13 O         144.6867  142.8161  160.4504 O.2     1  UNL1       -0.2652
     14 N         143.2106  142.5250  162.5685 N.ar    1  UNL1       -0.2963
     15 C         141.9266  142.7772  163.3016 C.ar    1  UNL1        0.0614
     16 C         140.2584  141.9428  166.8047 C.ar    1  UNL1        0.0295
     17 C         140.6110  142.7837  167.9958 C.ar    1  UNL1        0.0331
     18 C         140.4189  142.2404  169.3807 C.ar    1  UNL1        0.1530
     19 F         140.7715  143.0813  170.5718 F       1  UNL1       -0.2029
     20 C         139.8743  140.8563  169.5746 C.ar    1  UNL1        0.0716
     21 N         139.6823  140.3131  170.9595 N.pl3   1  UNL1       -0.3552
     22 C         139.5218  140.0154  168.3835 C.ar    1  UNL1        0.0460
     23 C         139.7138  140.5587  166.9986 C.ar    1  UNL1        0.1414
     24 F         139.3613  139.7178  165.8076 F       1  UNL1       -0.2041
     25 H         139.9137  140.8650  171.7412 H       1  UNL1        0.1424
     26 H         139.3248  139.4046  171.0868 H       1  UNL1        0.1424
     27 C         140.3492  145.9518  157.9131 C.3     1  UNL1        0.1518
     28 N         141.2887  146.3892  156.8287 N.3     1  UNL1       -0.3134
     29 H         141.9471  147.0719  157.2041 H       1  UNL1        0.1193
     30 H         140.7568  146.8125  156.0682 H       1  UNL1        0.1193
     31 C         144.3027  141.7296  163.2202 C.3     1  UNL1        0.0885
     32 C         144.8887  140.4057  163.6125 C.3     1  UNL1        0.0246
     33 C         145.6084  141.6760  163.9567 C.3     1  UNL1        0.0246
@<TRIPOS>BOND
     1     1     2    1
     2     2     3   ar
     3     3    16    1
     4    16    17   ar
     5    17    18   ar
     6    18    19    1
     7    18    20   ar
     8    20    21    1
     9    20    22   ar
    10    22    23   ar
    11    23    24    1
    12     3     4   ar
    13     4     5   ar
    14     5     6   ar
    15     6     7   ar
    16     7     8   ar
    17     8     9   ar
    18     9    27    1
    19    27    28    1
    20     9    10   ar
    21    10    11   ar
    22    11    12   ar
    23    12    13    2
    24    12    14   ar
    25    14    31    1
    26    31    32    1
    27    32    33    1
    28    14    15   ar
    29    15     2   ar
    30    23    16   ar
    31    15     6   ar
    32    11     7   ar
    33    33    31    1
    34    21    25    1
    35    21    26    1
    36    28    29    1
    37    28    30    1
@<TRIPOS>MOLECULE
*****
 33 37 0 0 0
SMALL
GASTEIGER

@<TRIPOS>ATOM
      1 C         139.9431  139.9582  166.3794 C.3     1  UNL1        0.0325
      2 C         140.0335  141.0804  165.3881 C.ar    1  UNL1       -0.0058
      3 C         140.6503  142.3876  165.7892 C.ar    1  UNL1       -0.0003
      4 C         140.7407  143.5097  164.7979 C.ar    1  UNL1       -0.0000
      5 C         140.2144  143.3247  163.4056 C.ar    1  UNL1        0.0045
      6 C         139.5976  142.0176  163.0044 C.ar    1  UNL1        0.0518
      7 C         139.0713  141.8325  161.6120 C.ar    1  UNL1        0.1704
      8 O         139.0226  142.7510  160.4271 O.2     1  UNL1       -0.4368
      9 C         138.3757  142.0115  159.2937 C.ar    1  UNL1        0.2217
     10 N         138.0246  140.6360  159.7781 N.ar    1  UNL1       -0.2060
     11 C         138.4545  140.5253  161.2109 C.ar    1  UNL1        0.1744
     12 C         138.3641  139.4032  162.2021 C.ar    1  UNL1        0.2816
     13 O         137.7473  138.0960  161.8010 O.2     1  UNL1       -0.2652
     14 N         138.8904  139.5882  163.5945 N.ar    1  UNL1       -0.2963
     15 C         139.5072  140.8953  163.9956 C.ar    1  UNL1        0.0614
     16 C         141.1766  142.5726  167.1816 C.ar    1  UNL1        0.0295
     17 C         140.2828  143.1200  168.2547 C.ar    1  UNL1        0.0331
     18 C         140.8093  143.3050  169.6471 C.ar    1  UNL1        0.1530
     19 F         139.9155  143.8524  170.7202 F       1  UNL1       -0.2029
     20 C         142.2294  142.9427  169.9663 C.ar    1  UNL1        0.0716
     21 N         142.7557  143.1277  171.3587 N.pl3   1  UNL1       -0.3552
     22 C         143.1231  142.3953  168.8932 C.ar    1  UNL1        0.0460
     23 C         142.5967  142.2103  167.5008 C.ar    1  UNL1        0.1414
     24 F         143.4905  141.6629  166.4277 F       1  UNL1       -0.2041
     25 H         142.1691  143.4870  172.0630 H       1  UNL1        0.1424
     26 H         143.6878  142.8899  171.5683 H       1  UNL1        0.1424
     27 C         138.1240  142.5526  157.9175 C.3     1  UNL1        0.1518
     28 N         137.1660  141.8524  157.0000 N.3     1  UNL1       -0.3134
     29 H         137.5375  140.9340  156.7570 H       1  UNL1        0.1193
     30 H         137.0428  142.4047  156.1513 H       1  UNL1        0.1193
     31 C         138.7999  138.4660  164.5858 C.3     1  UNL1        0.0885
     32 C         138.1830  137.8633  165.8130 C.3     1  UNL1        0.0246
     33 C         139.2604  137.1250  165.0754 C.3     1  UNL1        0.0246
@<TRIPOS>BOND
     1     1     2    1
     2     2     3   ar
     3     3    16    1
     4    16    17   ar
     5    17    18   ar
     6    18    19    1
     7    18    20   ar
     8    20    21    1
     9    20    22   ar
    10    22    23   ar
    11    23    24    1
    12     3     4   ar
    13     4     5   ar
    14     5     6   ar
    15     6     7   ar
    16     7     8   ar
    17     8     9   ar
    18     9    27    1
    19    27    28    1
    20     9    10   ar
    21    10    11   ar
    22    11    12   ar
    23    12    13    2
    24    12    14   ar
    25    14    31    1
    26    31    32    1
    27    32    33    1
    28    14    15   ar
    29    15     2   ar
    30    23    16   ar
    31    15     6   ar
    32    11     7   ar
    33    33    31    1
    34    21    25    1
    35    21    26    1
    36    28    29    1
    37    28    30    1
@<TRIPOS>MOLECULE
*****
 33 37 0 0 0
SMALL
GASTEIGER

@<TRIPOS>ATOM
      1 C         139.7840  142.5315  166.0022 C.3     1  UNL1        0.0325
      2 C         140.2055  141.2877  165.2776 C.ar    1  UNL1       -0.0058
      3 C         140.9238  140.1968  166.0153 C.ar    1  UNL1       -0.0003
      4 C         141.3453  138.9530  165.2906 C.ar    1  UNL1       -0.0000
      5 C         141.0487  138.7999  163.8282 C.ar    1  UNL1        0.0045
      6 C         140.3304  139.8907  163.0905 C.ar    1  UNL1        0.0518
      7 C         140.0337  139.7377  161.6281 C.ar    1  UNL1        0.1704
      8 O         140.3242  138.6336  160.6552 O.2     1  UNL1       -0.4368
      9 C         139.7855  139.0421  159.3162 C.ar    1  UNL1        0.2217
     10 N         139.1620  140.3986  159.4615 N.ar    1  UNL1       -0.2060
     11 C         139.3154  140.8286  160.8904 C.ar    1  UNL1        0.1744
     12 C         138.8939  142.0724  161.6151 C.ar    1  UNL1        0.2816
     13 O         138.1756  143.1633  160.8774 O.2     1  UNL1       -0.2652
     14 N         139.1906  142.2254  163.0774 N.ar    1  UNL1       -0.2963
     15 C         139.9088  141.1347  163.8151 C.ar    1  UNL1        0.0614
     16 C         141.2205  140.3498  167.4776 C.ar    1  UNL1        0.0295
     17 C         142.5368  140.9167  167.9205 C.ar    1  UNL1        0.0331
     18 C         142.8334  141.0696  169.3830 C.ar    1  UNL1        0.1530
     19 F         144.1497  141.6365  169.8259 F       1  UNL1       -0.2029
     20 C         141.8139  140.6558  170.4025 C.ar    1  UNL1        0.0716
     21 N         142.1106  140.8088  171.8648 N.pl3   1  UNL1       -0.3552
     22 C         140.4976  140.0890  169.9594 C.ar    1  UNL1        0.0460
     23 C         140.2010  139.9360  168.4971 C.ar    1  UNL1        0.1414
     24 F         138.8847  139.3692  168.0541 F       1  UNL1       -0.2041
     25 H         142.9745  141.1808  172.1555 H       1  UNL1        0.1424
     26 H         141.4414  140.5372  172.5339 H       1  UNL1        0.1424
     27 C         139.8575  138.2356  158.0535 C.3     1  UNL1        0.1518
     28 N         139.0727  138.6590  156.8474 N.3     1  UNL1       -0.3134
     29 H         138.0753  138.5778  157.0451 H       1  UNL1        0.1193
     30 H         139.3127  138.0594  156.0579 H       1  UNL1        0.1193
     31 C         138.7690  143.4693  163.8021 C.3     1  UNL1        0.0885
     32 C         137.7528  144.2210  164.6098 C.3     1  UNL1        0.0246
     33 C         139.0552  144.8722  164.2494 C.3     1  UNL1        0.0246
@<TRIPOS>BOND
     1     1     2    1
     2     2     3   ar
     3     3    16    1
     4    16    17   ar
     5    17    18   ar
     6    18    19    1
     7    18    20   ar
     8    20    21    1
     9    20    22   ar
    10    22    23   ar
    11    23    24    1
    12     3     4   ar
    13     4     5   ar
    14     5     6   ar
    15     6     7   ar
    16     7     8   ar
    17     8     9   ar
    18     9    27    1
    19    27    28    1
    20     9    10   ar
    21    10    11   ar
    22    11    12   ar
    23    12    13    2
    24    12    14   ar
    25    14    31    1
    26    31    32    1
    27    32    33    1
    28    14    15   ar
    29    15     2   ar
    30    23    16   ar
    31    15     6   ar
    32    11     7   ar
    33    33    31    1
    34    21    25    1
    35    21    26    1
    36    28    29    1
    37    28    30    1
@<TRIPOS>MOLECULE
*****
 33 37 0 0 0
SMALL
GASTEIGER

@<TRIPOS>ATOM
      1 C         142.3485  142.1011  165.7560 C.3     1  UNL1        0.0325
      2 C         142.1197  140.7832  165.0772 C.ar    1  UNL1       -0.0058
      3 C         141.6155  139.6110  165.8657 C.ar    1  UNL1       -0.0003
      4 C         141.3867  138.2931  165.1869 C.ar    1  UNL1       -0.0000
      5 C         141.6621  138.1473  163.7196 C.ar    1  UNL1        0.0045
      6 C         142.1664  139.3195  162.9311 C.ar    1  UNL1        0.0518
      7 C         142.4418  139.1738  161.4638 C.ar    1  UNL1        0.1704
      8 O         142.3116  138.0079  160.5291 O.2     1  UNL1       -0.4368
      9 C         142.7354  138.4595  159.1629 C.ar    1  UNL1        0.2217
     10 N         143.1275  139.9046  159.2533 N.ar    1  UNL1       -0.2060
     11 C         142.9461  140.3460  160.6753 C.ar    1  UNL1        0.1744
     12 C         143.1748  141.6639  161.3541 C.ar    1  UNL1        0.2816
     13 O         143.6791  142.8361  160.5657 O.2     1  UNL1       -0.2652
     14 N         142.8994  141.8096  162.8214 N.ar    1  UNL1       -0.2963
     15 C         142.3952  140.6375  163.6098 C.ar    1  UNL1        0.0614
     16 C         141.3400  139.7567  167.3329 C.ar    1  UNL1        0.0295
     17 C         142.4405  139.5366  168.3281 C.ar    1  UNL1        0.0331
     18 C         142.1649  139.6823  169.7954 C.ar    1  UNL1        0.1530
     19 F         143.2654  139.4623  170.7906 F       1  UNL1       -0.2029
     20 C         140.7889  140.0481  170.2675 C.ar    1  UNL1        0.0716
     21 N         140.5135  140.1938  171.7347 N.pl3   1  UNL1       -0.3552
     22 C         139.6884  140.2682  169.2722 C.ar    1  UNL1        0.0460
     23 C         139.9640  140.1225  167.8050 C.ar    1  UNL1        0.1414
     24 F         138.8635  140.3425  166.8098 F       1  UNL1       -0.2041
     25 H         141.2358  140.0494  172.3879 H       1  UNL1        0.1424
     26 H         139.6104  140.4339  172.0446 H       1  UNL1        0.1424
     27 C         142.7624  137.6145  157.9239 C.3     1  UNL1        0.1518
     28 N         143.4945  138.0932  156.7054 N.3     1  UNL1       -0.3134
     29 H         143.0322  138.9238  156.3355 H       1  UNL1        0.1193
     30 H         143.4924  137.3592  155.9972 H       1  UNL1        0.1193
     31 C         143.1282  143.1276  163.5001 C.3     1  UNL1        0.0885
     32 C         142.6448  144.4975  163.8741 C.3     1  UNL1        0.0246
     33 C         144.0079  144.0405  164.3019 C.3     1  UNL1        0.0246
@<TRIPOS>BOND
     1     1     2    1
     2     2     3   ar
     3     3    16    1
     4    16    17   ar
     5    17    18   ar
     6    18    19    1
     7    18    20   ar
     8    20    21    1
     9    20    22   ar
    10    22    23   ar
    11    23    24    1
    12     3     4   ar
    13     4     5   ar
    14     5     6   ar
    15     6     7   ar
    16     7     8   ar
    17     8     9   ar
    18     9    27    1
    19    27    28    1
    20     9    10   ar
    21    10    11   ar
    22    11    12   ar
    23    12    13    2
    24    12    14   ar
    25    14    31    1
    26    31    32    1
    27    32    33    1
    28    14    15   ar
    29    15     2   ar
    30    23    16   ar
    31    15     6   ar
    32    11     7   ar
    33    33    31    1
    34    21    25    1
    35    21    26    1
    36    28    29    1
    37    28    30    1
@<TRIPOS>MOLECULE
*****
 33 37 0 0 0
SMALL
GASTEIGER

@<TRIPOS>ATOM
      1 C         142.9376  140.4432  165.6908 C.3     1  UNL1        0.0325
      2 C         142.1480  141.6197  165.1983 C.ar    1  UNL1       -0.0058
      3 C         141.1780  142.3076  166.1125 C.ar    1  UNL1       -0.0003
      4 C         140.3884  143.4840  165.6201 C.ar    1  UNL1       -0.0000
      5 C         140.5688  143.9726  164.2134 C.ar    1  UNL1        0.0045
      6 C         141.5389  143.2847  163.2991 C.ar    1  UNL1        0.0518
      7 C         141.7193  143.7732  161.8924 C.ar    1  UNL1        0.1704
      8 O         141.0851  144.9000  161.1322 O.2     1  UNL1       -0.4368
      9 C         141.6631  144.9085  159.7481 C.ar    1  UNL1        0.2217
     10 N         142.6546  143.7869  159.6529 N.ar    1  UNL1       -0.2060
     11 C         142.6894  143.0853  160.9782 C.ar    1  UNL1        0.1744
     12 C         143.4790  141.9089  161.4707 C.ar    1  UNL1        0.2816
     13 O         144.4490  141.2209  160.5565 O.2     1  UNL1       -0.2652
     14 N         143.2985  141.4204  162.8774 N.ar    1  UNL1       -0.2963
     15 C         142.3285  142.1082  163.7916 C.ar    1  UNL1        0.0614
     16 C         140.9975  141.8191  167.5192 C.ar    1  UNL1        0.0295
     17 C         139.7313  141.1179  167.9130 C.ar    1  UNL1        0.0331
     18 C         139.5510  140.6294  169.3198 C.ar    1  UNL1        0.1530
     19 F         138.2848  139.9282  169.7136 F       1  UNL1       -0.2029
     20 C         140.6367  140.8421  170.3327 C.ar    1  UNL1        0.0716
     21 N         140.4562  140.3536  171.7394 N.pl3   1  UNL1       -0.3552
     22 C         141.9029  141.5433  169.9388 C.ar    1  UNL1        0.0460
     23 C         142.0833  142.0318  168.5321 C.ar    1  UNL1        0.1414
     24 F         143.3495  142.7330  168.1383 F       1  UNL1       -0.2041
     25 H         139.6252  139.8934  171.9978 H       1  UNL1        0.1424
     26 H         141.1688  140.4932  172.4042 H       1  UNL1        0.1424
     27 C         141.3115  145.8698  158.6516 C.3     1  UNL1        0.1518
     28 N         142.3556  146.2920  157.6609 N.3     1  UNL1       -0.3134
     29 H         143.0772  146.8331  158.1372 H       1  UNL1        0.1193
     30 H         141.9241  146.8650  156.9356 H       1  UNL1        0.1193
     31 C         144.0881  140.2439  163.3698 C.3     1  UNL1        0.0885
     32 C         145.2511  139.6897  164.1381 C.3     1  UNL1        0.0246
     33 C         144.2927  138.7603  163.4543 C.3     1  UNL1        0.0246
@<TRIPOS>BOND
     1     1     2    1
     2     2     3   ar
     3     3    16    1
     4    16    17   ar
     5    17    18   ar
     6    18    19    1
     7    18    20   ar
     8    20    21    1
     9    20    22   ar
    10    22    23   ar
    11    23    24    1
    12     3     4   ar
    13     4     5   ar
    14     5     6   ar
    15     6     7   ar
    16     7     8   ar
    17     8     9   ar
    18     9    27    1
    19    27    28    1
    20     9    10   ar
    21    10    11   ar
    22    11    12   ar
    23    12    13    2
    24    12    14   ar
    25    14    31    1
    26    31    32    1
    27    32    33    1
    28    14    15   ar
    29    15     2   ar
    30    23    16   ar
    31    15     6   ar
    32    11     7   ar
    33    33    31    1
    34    21    25    1
    35    21    26    1
    36    28    29    1
    37    28    30    1
@<TRIPOS>MOLECULE
*****
 33 37 0 0 0
SMALL
GASTEIGER

@<TRIPOS>ATOM
      1 C         142.6109  140.8742  165.8517 C.3     1  UNL1        0.0325
      2 C         141.3299  141.0363  165.0883 C.ar    1  UNL1       -0.0058
      3 C         140.0711  141.4197  165.8083 C.ar    1  UNL1       -0.0003
      4 C         138.7901  141.5818  165.0449 C.ar    1  UNL1       -0.0000
      5 C         138.7679  141.3606  163.5615 C.ar    1  UNL1        0.0045
      6 C         140.0267  140.9773  162.8414 C.ar    1  UNL1        0.0518
      7 C         140.0045  140.7561  161.3579 C.ar    1  UNL1        0.1704
      8 O         138.8999  140.8421  160.3468 O.2     1  UNL1       -0.4368
      9 C         139.4761  140.5119  159.0018 C.ar    1  UNL1        0.2217
     10 N         140.9368  140.2218  159.1817 N.ar    1  UNL1       -0.2060
     11 C         141.2633  140.3727  160.6379 C.ar    1  UNL1        0.1744
     12 C         142.5443  140.2106  161.4013 C.ar    1  UNL1        0.2816
     13 O         143.8031  139.8273  160.6813 O.2     1  UNL1       -0.2652
     14 N         142.5665  140.4318  162.8847 N.ar    1  UNL1       -0.2963
     15 C         141.3077  140.8151  163.6047 C.ar    1  UNL1        0.0614
     16 C         140.0933  141.6409  167.2917 C.ar    1  UNL1        0.0295
     17 C         140.4677  142.9842  167.8442 C.ar    1  UNL1        0.0331
     18 C         140.4898  143.2053  169.3277 C.ar    1  UNL1        0.1530
     19 F         140.8642  144.5487  169.8802 F       1  UNL1       -0.2029
     20 C         140.1375  142.0832  170.2586 C.ar    1  UNL1        0.0716
     21 N         140.1597  142.3044  171.7421 N.pl3   1  UNL1       -0.3552
     22 C         139.7631  140.7398  169.7061 C.ar    1  UNL1        0.0460
     23 C         139.7410  140.5187  168.2227 C.ar    1  UNL1        0.1414
     24 F         139.3666  139.1753  167.6702 F       1  UNL1       -0.2041
     25 H         140.4054  143.1861  172.1047 H       1  UNL1        0.1424
     26 H         139.9285  141.5679  172.3531 H       1  UNL1        0.1424
     27 C         138.7237  140.4778  157.7046 C.3     1  UNL1        0.1518
     28 N         137.2244  140.4347  157.7081 N.3     1  UNL1       -0.3134
     29 H         136.9106  139.5516  158.1106 H       1  UNL1        0.1193
     30 H         136.8797  140.5137  156.7513 H       1  UNL1        0.1193
     31 C         143.8476  140.2696  163.6481 C.3     1  UNL1        0.0885
     32 C         145.1425  140.8378  164.1484 C.3     1  UNL1        0.0246
     33 C         144.7714  139.4205  164.4700 C.3     1  UNL1        0.0246
@<TRIPOS>BOND
     1     1     2    1
     2     2     3   ar
     3     3    16    1
     4    16    17   ar
     5    17    18   ar
     6    18    19    1
     7    18    20   ar
     8    20    21    1
     9    20    22   ar
    10    22    23   ar
    11    23    24    1
    12     3     4   ar
    13     4     5   ar
    14     5     6   ar
    15     6     7   ar
    16     7     8   ar
    17     8     9   ar
    18     9    27    1
    19    27    28    1
    20     9    10   ar
    21    10    11   ar
    22    11    12   ar
    23    12    13    2
    24    12    14   ar
    25    14    31    1
    26    31    32    1
    27    32    33    1
    28    14    15   ar
    29    15     2   ar
    30    23    16   ar
    31    15     6   ar
    32    11     7   ar
    33    33    31    1
    34    21    25    1
    35    21    26    1
    36    28    29    1
    37    28    30    1
@<TRIPOS>MOLECULE
*****
 33 37 0 0 0
SMALL
GASTEIGER

@<TRIPOS>ATOM
      1 C         142.0149  142.2336  165.7511 C.3     1  UNL1        0.0325
      2 C         141.7147  140.9534  165.0292 C.ar    1  UNL1       -0.0058
      3 C         141.2212  139.7600  165.7923 C.ar    1  UNL1       -0.0003
      4 C         140.9210  138.4799  165.0705 C.ar    1  UNL1       -0.0000
      5 C         141.1143  138.3931  163.5855 C.ar    1  UNL1        0.0045
      6 C         141.6078  139.5864  162.8224 C.ar    1  UNL1        0.0518
      7 C         141.8011  139.4996  161.3374 C.ar    1  UNL1        0.1704
      8 O         141.5899  138.3803  160.3615 O.2     1  UNL1       -0.4368
      9 C         141.9529  138.8819  158.9953 C.ar    1  UNL1        0.2217
     10 N         142.3885  140.3112  159.1268 N.ar    1  UNL1       -0.2060
     11 C         142.2947  140.6930  160.5743 C.ar    1  UNL1        0.1744
     12 C         142.5949  141.9732  161.2962 C.ar    1  UNL1        0.2816
     13 O         143.0884  143.1665  160.5331 O.2     1  UNL1       -0.2652
     14 N         142.4016  142.0599  162.7811 N.ar    1  UNL1       -0.2963
     15 C         141.9081  140.8666  163.5442 C.ar    1  UNL1        0.0614
     16 C         141.0279  139.8468  167.2773 C.ar    1  UNL1        0.0295
     17 C         139.6992  140.2596  167.8378 C.ar    1  UNL1        0.0331
     18 C         139.5059  140.3463  169.3228 C.ar    1  UNL1        0.1530
     19 F         138.1772  140.7591  169.8833 F       1  UNL1       -0.2029
     20 C         140.6413  140.0203  170.2472 C.ar    1  UNL1        0.0716
     21 N         140.4480  140.1071  171.7322 N.pl3   1  UNL1       -0.3552
     22 C         141.9700  139.6075  169.6866 C.ar    1  UNL1        0.0460
     23 C         142.1633  139.5208  168.2017 C.ar    1  UNL1        0.1414
     24 F         143.4920  139.1081  167.6412 F       1  UNL1       -0.2041
     25 H         139.5759  140.3780  172.1001 H       1  UNL1        0.1424
     26 H         141.1932  139.8931  172.3389 H       1  UNL1        0.1424
     27 C         141.8912  138.0927  157.7211 C.3     1  UNL1        0.1518
     28 N         143.0997  137.3433  157.2438 N.3     1  UNL1       -0.3134
     29 H         143.8357  138.0056  156.9988 H       1  UNL1        0.1193
     30 H         142.8541  136.7892  156.4234 H       1  UNL1        0.1193
     31 C         142.7018  143.3402  163.5030 C.3     1  UNL1        0.0885
     32 C         143.6542  144.2024  164.2773 C.3     1  UNL1        0.0246
     33 C         142.2693  144.6953  163.9789 C.3     1  UNL1        0.0246
@<TRIPOS>BOND
     1     1     2    1
     2     2     3   ar
     3     3    16    1
     4    16    17   ar
     5    17    18   ar
     6    18    19    1
     7    18    20   ar
     8    20    21    1
     9    20    22   ar
    10    22    23   ar
    11    23    24    1
    12     3     4   ar
    13     4     5   ar
    14     5     6   ar
    15     6     7   ar
    16     7     8   ar
    17     8     9   ar
    18     9    27    1
    19    27    28    1
    20     9    10   ar
    21    10    11   ar
    22    11    12   ar
    23    12    13    2
    24    12    14   ar
    25    14    31    1
    26    31    32    1
    27    32    33    1
    28    14    15   ar
    29    15     2   ar
    30    23    16   ar
    31    15     6   ar
    32    11     7   ar
    33    33    31    1
    34    21    25    1
    35    21    26    1
    36    28    29    1
    37    28    30    1
@<TRIPOS>MOLECULE
*****
 33 37 0 0 0
SMALL
GASTEIGER

@<TRIPOS>ATOM
      1 C         142.8327  140.6163  165.5716 C.3     1  UNL1        0.0325
      2 C         141.5799  140.4232  164.7698 C.ar    1  UNL1       -0.0058
      3 C         140.2428  140.7072  165.3875 C.ar    1  UNL1       -0.0003
      4 C         138.9899  140.5141  164.5856 C.ar    1  UNL1       -0.0000
      5 C         139.0740  140.0371  163.1660 C.ar    1  UNL1        0.0045
      6 C         140.4111  139.7530  162.5482 C.ar    1  UNL1        0.0518
      7 C         140.4953  139.2759  161.1286 C.ar    1  UNL1        0.1704
      8 O         139.4404  138.9957  160.0997 O.2     1  UNL1       -0.4368
      9 C         140.1255  138.5385  158.8461 C.ar    1  UNL1        0.2217
     10 N         141.6038  138.5361  159.1002 N.ar    1  UNL1       -0.2060
     11 C         141.8324  138.9919  160.5109 C.ar    1  UNL1        0.1744
     12 C         143.0853  139.1850  161.3128 C.ar    1  UNL1        0.2816
     13 O         144.4224  138.9010  160.6951 O.2     1  UNL1       -0.2652
     14 N         143.0011  139.6621  162.7324 N.ar    1  UNL1       -0.2963
     15 C         141.6641  139.9461  163.3501 C.ar    1  UNL1        0.0614
     16 C         140.1586  141.1843  166.8071 C.ar    1  UNL1        0.0295
     17 C         139.8028  140.2225  167.9017 C.ar    1  UNL1        0.0331
     18 C         139.7186  140.6997  169.3213 C.ar    1  UNL1        0.1530
     19 F         139.3629  139.7378  170.4160 F       1  UNL1       -0.2029
     20 C         139.9902  142.1387  169.6463 C.ar    1  UNL1        0.0716
     21 N         139.9060  142.6158  171.0659 N.pl3   1  UNL1       -0.3552
     22 C         140.3459  143.1005  168.5515 C.ar    1  UNL1        0.0460
     23 C         140.4301  142.6233  167.1320 C.ar    1  UNL1        0.1414
     24 F         140.7859  143.5852  166.0374 F       1  UNL1       -0.2041
     25 H         139.6725  141.9845  171.7843 H       1  UNL1        0.1424
     26 H         140.0842  143.5602  171.2792 H       1  UNL1        0.1424
     27 C         139.4508  138.1515  157.5635 C.3     1  UNL1        0.1518
     28 N         140.0043  137.0318  156.7330 N.3     1  UNL1       -0.3134
     29 H         140.9200  137.2977  156.3707 H       1  UNL1        0.1193
     30 H         139.3730  136.8414  155.9549 H       1  UNL1        0.1193
     31 C         144.2540  139.8552  163.5342 C.3     1  UNL1        0.0885
     32 C         145.4239  140.7057  163.9317 C.3     1  UNL1        0.0246
     33 C         145.2543  139.3389  164.5257 C.3     1  UNL1        0.0246
@<TRIPOS>BOND
     1     1     2    1
     2     2     3   ar
     3     3    16    1
     4    16    17   ar
     5    17    18   ar
     6    18    19    1
     7    18    20   ar
     8    20    21    1
     9    20    22   ar
    10    22    23   ar
    11    23    24    1
    12     3     4   ar
    13     4     5   ar
    14     5     6   ar
    15     6     7   ar
    16     7     8   ar
    17     8     9   ar
    18     9    27    1
    19    27    28    1
    20     9    10   ar
    21    10    11   ar
    22    11    12   ar
    23    12    13    2
    24    12    14   ar
    25    14    31    1
    26    31    32    1
    27    32    33    1
    28    14    15   ar
    29    15     2   ar
    30    23    16   ar
    31    15     6   ar
    32    11     7   ar
    33    33    31    1
    34    21    25    1
    35    21    26    1
    36    28    29    1
    37    28    30    1
