@<TRIPOS>MOLECULE
*****
 40 44 0 0 0
SMALL
GASTEIGER

@<TRIPOS>ATOM
      1 C         136.6794  143.2862  155.2697 C.3     1  UNL1        0.0437
      2 C         137.3768  142.0214  155.6746 C.3     1  UNL1        0.1368
      3 C         137.1216  141.7259  154.2263 C.3     1  UNL1        0.0437
      4 C         137.9855  140.6540  155.5766 C.3     1  UNL1        0.0643
      5 C         138.6072  140.0213  156.7862 C.3     1  UNL1        0.1023
      6 C         138.6202  140.7560  158.0939 C.ar    1  UNL1        0.0488
      7 C         139.2419  140.1233  159.3035 C.ar    1  UNL1        0.0034
      8 C         139.2549  140.8580  160.6111 C.ar    1  UNL1        0.0177
      9 C         138.6462  142.2255  160.7092 C.ar    1  UNL1        0.0851
     10 N         138.0245  142.8582  159.4996 N.ar    1  UNL1       -0.2119
     11 C         138.0115  142.1234  158.1919 C.ar    1  UNL1        0.2219
     12 O         137.3898  142.7561  156.9823 O.3     1  UNL1       -0.4676
     13 C         138.6592  142.9602  162.0168 C.ar    1  UNL1        0.0284
     14 C         137.5978  142.6873  163.0410 C.ar    1  UNL1        0.0032
     15 C         137.6108  143.4221  164.3488 C.ar    1  UNL1        0.0115
     16 C         138.6852  144.4297  164.6322 C.ar    1  UNL1        0.0585
     17 CL        138.6982  145.1644  165.9398 Cl      1  UNL1       -0.0822
     18 C         139.7466  144.7026  163.6080 C.ar    1  UNL1        0.0228
     19 C         139.7336  143.9679  162.3004 C.ar    1  UNL1        0.0599
     20 CL        140.7950  144.2408  161.2762 Cl      1  UNL1       -0.0822
     21 C         139.8766  140.2254  161.8207 C.ar    1  UNL1        0.0015
     22 C         139.0731  139.2893  162.6742 C.ar    1  UNL1        0.0009
     23 C         139.6949  138.6566  163.8838 C.ar    1  UNL1        0.0114
     24 C         141.1201  138.9600  164.2400 C.ar    1  UNL1        0.0577
     25 CL        141.7418  138.3273  165.4496 Cl      1  UNL1       -0.0822
     26 C         141.9235  139.8960  163.3866 C.ar    1  UNL1        0.0114
     27 C         141.3018  140.5287  162.1769 C.ar    1  UNL1        0.0009
     28 N         139.2160  138.6538  156.6881 N.am    1  UNL1       -0.2984
     29 C         140.6580  138.5006  156.3049 C.2     1  UNL1        0.2472
     30 O         141.4914  139.7147  156.0198 O.2     1  UNL1       -0.2701
     31 H         138.6690  137.8569  156.8753 H       1  UNL1        0.1500
     32 C         141.2668  137.1331  156.2068 C.ar    1  UNL1        0.0662
     33 C         140.6712  136.1115  155.2840 C.ar    1  UNL1        0.0057
     34 C         141.2799  134.7441  155.1859 C.ar    1  UNL1        0.0002
     35 C         142.4841  134.3983  156.0106 C.ar    1  UNL1        0.0013
     36 C         143.0797  135.4199  156.9335 C.ar    1  UNL1        0.0142
     37 C         142.4710  136.7873  157.0316 C.ar    1  UNL1        0.0459
     38 N         143.0665  137.8089  157.9544 N.pl3   1  UNL1       -0.3569
     39 H         143.8569  137.5820  158.4957 H       1  UNL1        0.1424
     40 H         142.6670  138.7064  158.0188 H       1  UNL1        0.1424
@<TRIPOS>BOND
     1     1     2    1
     2     2     3    1
     3     2     4    1
     4     4     5    1
     5     5    28    1
     6    28    29   am
     7    29    30    2
     8    29    32    1
     9    32    33   ar
    10    33    34   ar
    11    34    35   ar
    12    35    36   ar
    13    36    37   ar
    14    37    38    1
    15     5     6    1
    16     6     7   ar
    17     7     8   ar
    18     8    21    1
    19    21    22   ar
    20    22    23   ar
    21    23    24   ar
    22    24    25    1
    23    24    26   ar
    24    26    27   ar
    25     8     9   ar
    26     9    13    1
    27    13    14   ar
    28    14    15   ar
    29    15    16   ar
    30    16    17    1
    31    16    18   ar
    32    18    19   ar
    33    19    20    1
    34     9    10   ar
    35    10    11   ar
    36    11    12    1
    37    12     2    1
    38    37    32   ar
    39    11     6   ar
    40    27    21   ar
    41    19    13   ar
    42    28    31    1
    43    38    39    1
    44    38    40    1
@<TRIPOS>MOLECULE
*****
 40 44 0 0 0
SMALL
GASTEIGER

@<TRIPOS>ATOM
      1 C         143.9550  135.8052  155.6984 C.3     1  UNL1        0.0437
      2 C         142.7970  136.7587  155.6920 C.3     1  UNL1        0.1368
      3 C         142.8633  136.4195  154.2323 C.3     1  UNL1        0.0437
      4 C         141.6621  137.5943  155.1786 C.3     1  UNL1        0.0643
      5 C         140.8630  138.4381  156.1271 C.3     1  UNL1        0.1023
      6 C         141.1989  138.4461  157.5889 C.ar    1  UNL1        0.0488
      7 C         140.3998  139.2898  158.5374 C.ar    1  UNL1        0.0034
      8 C         140.7356  139.2978  159.9993 C.ar    1  UNL1        0.0177
      9 C         141.8705  138.4621  160.5127 C.ar    1  UNL1        0.0851
     10 N         142.6696  137.6184  159.5643 N.ar    1  UNL1       -0.2119
     11 C         142.3337  137.6104  158.1023 C.ar    1  UNL1        0.2219
     12 O         143.1328  136.7667  157.1538 O.3     1  UNL1       -0.4676
     13 C         142.2064  138.4702  161.9746 C.ar    1  UNL1        0.0284
     14 C         141.4333  137.6063  162.9265 C.ar    1  UNL1        0.0032
     15 C         141.7692  137.6144  164.3885 C.ar    1  UNL1        0.0115
     16 C         142.8781  138.4863  164.8984 C.ar    1  UNL1        0.0585
     17 CL        143.2139  138.4943  166.3603 Cl      1  UNL1       -0.0822
     18 C         143.6511  139.3501  163.9465 C.ar    1  UNL1        0.0228
     19 C         143.3153  139.3421  162.4847 C.ar    1  UNL1        0.0599
     20 CL        144.0884  140.2059  161.5328 Cl      1  UNL1       -0.0822
     21 C         139.9365  140.1416  160.9478 C.ar    1  UNL1        0.0015
     22 C         140.4311  141.5023  161.3402 C.ar    1  UNL1        0.0009
     23 C         139.6321  142.3460  162.2886 C.ar    1  UNL1        0.0114
     24 C         138.3384  141.8290  162.8447 C.ar    1  UNL1        0.0577
     25 CL        137.5393  142.6727  163.7932 Cl      1  UNL1       -0.0822
     26 C         137.8438  140.4684  162.4523 C.ar    1  UNL1        0.0114
     27 C         138.6429  139.6246  161.5039 C.ar    1  UNL1        0.0009
     28 N         139.7281  139.2738  155.6136 N.am    1  UNL1       -0.2984
     29 C         138.3986  138.6399  155.3296 C.2     1  UNL1        0.2472
     30 O         138.2040  137.1704  155.5590 O.2     1  UNL1       -0.2701
     31 H         139.8558  140.2383  155.4630 H       1  UNL1        0.1500
     32 C         137.2637  139.4757  154.8161 C.ar    1  UNL1        0.0662
     33 C         136.8471  139.3730  153.3788 C.ar    1  UNL1        0.0057
     34 C         135.7122  140.2086  152.8653 C.ar    1  UNL1        0.0002
     35 C         134.9939  141.1469  153.7892 C.ar    1  UNL1        0.0013
     36 C         135.4105  141.2496  155.2265 C.ar    1  UNL1        0.0142
     37 C         136.5454  140.4140  155.7400 C.ar    1  UNL1        0.0459
     38 N         136.9619  140.5166  157.1773 N.pl3   1  UNL1       -0.3569
     39 H         136.4905  141.1325  157.7837 H       1  UNL1        0.1424
     40 H         137.7068  139.9682  157.5143 H       1  UNL1        0.1424
@<TRIPOS>BOND
     1     1     2    1
     2     2     3    1
     3     2     4    1
     4     4     5    1
     5     5    28    1
     6    28    29   am
     7    29    30    2
     8    29    32    1
     9    32    33   ar
    10    33    34   ar
    11    34    35   ar
    12    35    36   ar
    13    36    37   ar
    14    37    38    1
    15     5     6    1
    16     6     7   ar
    17     7     8   ar
    18     8    21    1
    19    21    22   ar
    20    22    23   ar
    21    23    24   ar
    22    24    25    1
    23    24    26   ar
    24    26    27   ar
    25     8     9   ar
    26     9    13    1
    27    13    14   ar
    28    14    15   ar
    29    15    16   ar
    30    16    17    1
    31    16    18   ar
    32    18    19   ar
    33    19    20    1
    34     9    10   ar
    35    10    11   ar
    36    11    12    1
    37    12     2    1
    38    37    32   ar
    39    11     6   ar
    40    27    21   ar
    41    19    13   ar
    42    28    31    1
    43    38    39    1
    44    38    40    1
@<TRIPOS>MOLECULE
*****
 40 44 0 0 0
SMALL
GASTEIGER

@<TRIPOS>ATOM
      1 C         146.1825  143.1608  153.8200 C.3     1  UNL1        0.0437
      2 C         145.7930  141.7955  154.3042 C.3     1  UNL1        0.1368
      3 C         146.2842  141.4537  152.9287 C.3     1  UNL1        0.0437
      4 C         145.5741  140.3117  154.3108 C.3     1  UNL1        0.0643
      5 C         144.9992  139.6437  155.5246 C.3     1  UNL1        0.1023
      6 C         144.6433  140.4596  156.7319 C.ar    1  UNL1        0.0488
      7 C         144.0685  139.7916  157.9457 C.ar    1  UNL1        0.0034
      8 C         143.7126  140.6075  159.1530 C.ar    1  UNL1        0.0177
      9 C         143.9315  142.0915  159.1465 C.ar    1  UNL1        0.0851
     10 N         144.5063  142.7595  157.9327 N.ar    1  UNL1       -0.2119
     11 C         144.8622  141.9435  156.7253 C.ar    1  UNL1        0.2219
     12 O         145.4371  142.6115  155.5115 O.3     1  UNL1       -0.4676
     13 C         143.5756  142.9074  160.3538 C.ar    1  UNL1        0.0284
     14 C         144.5662  143.0690  161.4684 C.ar    1  UNL1        0.0032
     15 C         144.2103  143.8849  162.6758 C.ar    1  UNL1        0.0115
     16 C         142.8637  144.5392  162.7684 C.ar    1  UNL1        0.0585
     17 CL        142.5078  145.3551  163.9757 Cl      1  UNL1       -0.0822
     18 C         141.8731  144.3777  161.6537 C.ar    1  UNL1        0.0228
     19 C         142.2290  143.5617  160.4464 C.ar    1  UNL1        0.0599
     20 CL        141.2383  143.4002  159.3317 Cl      1  UNL1       -0.0822
     21 C         143.1377  139.9395  160.3668 C.ar    1  UNL1        0.0015
     22 C         141.6505  139.8625  160.5469 C.ar    1  UNL1        0.0009
     23 C         141.0757  139.1945  161.7608 C.ar    1  UNL1        0.0114
     24 C         141.9881  138.6035  162.7944 C.ar    1  UNL1        0.0577
     25 CL        141.4132  137.9355  164.0083 Cl      1  UNL1       -0.0822
     26 C         143.4752  138.6806  162.6143 C.ar    1  UNL1        0.0114
     27 C         144.0500  139.3486  161.4004 C.ar    1  UNL1        0.0009
     28 N         144.7803  138.1597  155.5311 N.am    1  UNL1       -0.2984
     29 C         143.4350  137.5985  155.1775 C.2     1  UNL1        0.2472
     30 O         142.3085  138.5212  154.8173 O.2     1  UNL1       -0.2701
     31 H         145.5196  137.5541  155.7674 H       1  UNL1        0.1500
     32 C         143.2161  136.1145  155.1839 C.ar    1  UNL1        0.0662
     33 C         143.6429  135.2986  156.3681 C.ar    1  UNL1        0.0057
     34 C         143.4240  133.8147  156.3746 C.ar    1  UNL1        0.0002
     35 C         142.7783  133.1467  155.1970 C.ar    1  UNL1        0.0013
     36 C         142.3514  133.9626  154.0129 C.ar    1  UNL1        0.0142
     37 C         142.5703  135.4465  154.0064 C.ar    1  UNL1        0.0459
     38 N         142.1435  136.2624  152.8222 N.pl3   1  UNL1       -0.3569
     39 H         141.7197  135.8239  152.0493 H       1  UNL1        0.1424
     40 H         142.2872  137.2363  152.8180 H       1  UNL1        0.1424
@<TRIPOS>BOND
     1     1     2    1
     2     2     3    1
     3     2     4    1
     4     4     5    1
     5     5    28    1
     6    28    29   am
     7    29    30    2
     8    29    32    1
     9    32    33   ar
    10    33    34   ar
    11    34    35   ar
    12    35    36   ar
    13    36    37   ar
    14    37    38    1
    15     5     6    1
    16     6     7   ar
    17     7     8   ar
    18     8    21    1
    19    21    22   ar
    20    22    23   ar
    21    23    24   ar
    22    24    25    1
    23    24    26   ar
    24    26    27   ar
    25     8     9   ar
    26     9    13    1
    27    13    14   ar
    28    14    15   ar
    29    15    16   ar
    30    16    17    1
    31    16    18   ar
    32    18    19   ar
    33    19    20    1
    34     9    10   ar
    35    10    11   ar
    36    11    12    1
    37    12     2    1
    38    37    32   ar
    39    11     6   ar
    40    27    21   ar
    41    19    13   ar
    42    28    31    1
    43    38    39    1
    44    38    40    1
@<TRIPOS>MOLECULE
*****
 40 44 0 0 0
SMALL
GASTEIGER

@<TRIPOS>ATOM
      1 C         146.6594  143.1322  154.9359 C.3     1  UNL1        0.0437
      2 C         145.6840  142.0044  155.1001 C.3     1  UNL1        0.1368
      3 C         145.9539  141.9031  153.6280 C.3     1  UNL1        0.0437
      4 C         144.8025  140.8415  154.7531 C.3     1  UNL1        0.0643
      5 C         143.9898  140.1715  155.8211 C.3     1  UNL1        0.1023
      6 C         144.0586  140.6643  157.2361 C.ar    1  UNL1        0.0488
      7 C         143.2459  139.9943  158.3040 C.ar    1  UNL1        0.0034
      8 C         143.3147  140.4872  159.7190 C.ar    1  UNL1        0.0177
      9 C         144.1963  141.6502  160.0661 C.ar    1  UNL1        0.0851
     10 N         145.0090  142.3202  158.9982 N.ar    1  UNL1       -0.2119
     11 C         144.9402  141.8272  157.5831 C.ar    1  UNL1        0.2219
     12 O         145.7529  142.4973  156.5151 O.3     1  UNL1       -0.4676
     13 C         144.2652  142.1430  161.4811 C.ar    1  UNL1        0.0284
     14 C         145.2352  141.5253  162.4441 C.ar    1  UNL1        0.0032
     15 C         145.3040  142.0183  163.8592 C.ar    1  UNL1        0.0115
     16 C         144.4028  143.1289  164.3112 C.ar    1  UNL1        0.0585
     17 CL        144.4716  143.6217  165.7262 Cl      1  UNL1       -0.0822
     18 C         143.4327  143.7466  163.3482 C.ar    1  UNL1        0.0228
     19 C         143.3639  143.2537  161.9332 C.ar    1  UNL1        0.0599
     20 CL        142.3938  143.8714  160.9702 Cl      1  UNL1       -0.0822
     21 C         142.5020  139.8172  160.7870 C.ar    1  UNL1        0.0015
     22 C         141.1380  140.3389  161.1297 C.ar    1  UNL1        0.0009
     23 C         140.3253  139.6689  162.1977 C.ar    1  UNL1        0.0114
     24 C         140.8766  138.4772  162.9230 C.ar    1  UNL1        0.0577
     25 CL        140.0639  137.8071  163.9909 Cl      1  UNL1       -0.0822
     26 C         142.2405  137.9555  162.5802 C.ar    1  UNL1        0.0114
     27 C         143.0532  138.6255  161.5122 C.ar    1  UNL1        0.0009
     28 N         143.1082  139.0085  155.4740 N.am    1  UNL1       -0.2984
     29 C         143.7059  137.6472  155.2757 C.2     1  UNL1        0.2472
     30 O         145.1853  137.4487  155.4245 O.2     1  UNL1       -0.2701
     31 H         142.1372  139.1388  155.3763 H       1  UNL1        0.1500
     32 C         142.8243  136.4842  154.9286 C.ar    1  UNL1        0.0662
     33 C         141.7566  136.6373  153.8862 C.ar    1  UNL1        0.0057
     34 C         140.8750  135.4745  153.5391 C.ar    1  UNL1        0.0002
     35 C         141.0612  134.1585  154.2344 C.ar    1  UNL1        0.0013
     36 C         142.1289  134.0053  155.2767 C.ar    1  UNL1        0.0142
     37 C         143.0105  135.1682  155.6238 C.ar    1  UNL1        0.0459
     38 N         144.0782  135.0150  156.6661 N.pl3   1  UNL1       -0.3569
     39 H         144.2004  134.1513  157.1224 H       1  UNL1        0.1424
     40 H         144.6569  135.7783  156.8940 H       1  UNL1        0.1424
@<TRIPOS>BOND
     1     1     2    1
     2     2     3    1
     3     2     4    1
     4     4     5    1
     5     5    28    1
     6    28    29   am
     7    29    30    2
     8    29    32    1
     9    32    33   ar
    10    33    34   ar
    11    34    35   ar
    12    35    36   ar
    13    36    37   ar
    14    37    38    1
    15     5     6    1
    16     6     7   ar
    17     7     8   ar
    18     8    21    1
    19    21    22   ar
    20    22    23   ar
    21    23    24   ar
    22    24    25    1
    23    24    26   ar
    24    26    27   ar
    25     8     9   ar
    26     9    13    1
    27    13    14   ar
    28    14    15   ar
    29    15    16   ar
    30    16    17    1
    31    16    18   ar
    32    18    19   ar
    33    19    20    1
    34     9    10   ar
    35    10    11   ar
    36    11    12    1
    37    12     2    1
    38    37    32   ar
    39    11     6   ar
    40    27    21   ar
    41    19    13   ar
    42    28    31    1
    43    38    39    1
    44    38    40    1
@<TRIPOS>MOLECULE
*****
 40 44 0 0 0
SMALL
GASTEIGER

@<TRIPOS>ATOM
      1 C         141.0480  145.8364  155.4471 C.3     1  UNL1        0.0437
      2 C         141.0798  144.3539  155.6737 C.3     1  UNL1        0.1368
      3 C         141.4524  144.4035  154.2215 C.3     1  UNL1        0.0437
      4 C         141.2411  142.8887  155.3960 C.3     1  UNL1        0.0643
      5 C         141.0187  141.8887  156.4918 C.3     1  UNL1        0.1023
      6 C         140.6351  142.3540  157.8652 C.ar    1  UNL1        0.0488
      7 C         140.4128  141.3540  158.9609 C.ar    1  UNL1        0.0034
      8 C         140.0292  141.8193  160.3344 C.ar    1  UNL1        0.0177
      9 C         139.8680  143.2845  160.6121 C.ar    1  UNL1        0.0851
     10 N         140.0903  144.2845  159.5164 N.ar    1  UNL1       -0.2119
     11 C         140.4739  143.8192  158.1429 C.ar    1  UNL1        0.2219
     12 O         140.6963  144.8191  157.0471 O.3     1  UNL1       -0.4676
     13 C         139.4844  143.7498  161.9856 C.ar    1  UNL1        0.0284
     14 C         138.0543  143.6724  162.4315 C.ar    1  UNL1        0.0032
     15 C         137.6708  144.1377  163.8050 C.ar    1  UNL1        0.0115
     16 C         138.7173  144.6803  164.7325 C.ar    1  UNL1        0.0585
     17 CL        138.3337  145.1455  166.1060 Cl      1  UNL1       -0.0822
     18 C         140.1474  144.7577  164.2866 C.ar    1  UNL1        0.0228
     19 C         140.5309  144.2924  162.9132 C.ar    1  UNL1        0.0599
     20 CL        141.9610  144.3698  162.4672 Cl      1  UNL1       -0.0822
     21 C         139.8069  140.8193  161.4301 C.ar    1  UNL1        0.0015
     22 C         138.4882  140.1137  161.5453 C.ar    1  UNL1        0.0009
     23 C         138.2658  139.1138  162.6411 C.ar    1  UNL1        0.0114
     24 C         139.3622  138.8194  163.6216 C.ar    1  UNL1        0.0577
     25 CL        139.1399  137.8194  164.7173 Cl      1  UNL1       -0.0822
     26 C         140.6808  139.5249  163.5063 C.ar    1  UNL1        0.0114
     27 C         140.9032  140.5249  162.4106 C.ar    1  UNL1        0.0009
     28 N         141.1800  140.4235  156.2140 N.am    1  UNL1       -0.2984
     29 C         142.4992  139.7540  156.4615 C.2     1  UNL1        0.2472
     30 O         143.6573  140.5496  156.9867 O.2     1  UNL1       -0.2701
     31 H         140.4199  139.9012  155.8693 H       1  UNL1        0.1500
     32 C         142.6605  138.2887  156.1837 C.ar    1  UNL1        0.0662
     33 C         141.5060  137.3542  156.3932 C.ar    1  UNL1        0.0057
     34 C         141.6672  135.8890  156.1154 C.ar    1  UNL1        0.0002
     35 C         142.9829  135.3583  155.6282 C.ar    1  UNL1        0.0013
     36 C         144.1373  136.2928  155.4188 C.ar    1  UNL1        0.0142
     37 C         143.9761  137.7580  155.6965 C.ar    1  UNL1        0.0459
     38 N         145.1306  138.6926  155.4871 N.pl3   1  UNL1       -0.3569
     39 H         145.9941  138.3443  155.1673 H       1  UNL1        0.1424
     40 H         145.0248  139.6542  155.6694 H       1  UNL1        0.1424
@<TRIPOS>BOND
     1     1     2    1
     2     2     3    1
     3     2     4    1
     4     4     5    1
     5     5    28    1
     6    28    29   am
     7    29    30    2
     8    29    32    1
     9    32    33   ar
    10    33    34   ar
    11    34    35   ar
    12    35    36   ar
    13    36    37   ar
    14    37    38    1
    15     5     6    1
    16     6     7   ar
    17     7     8   ar
    18     8    21    1
    19    21    22   ar
    20    22    23   ar
    21    23    24   ar
    22    24    25    1
    23    24    26   ar
    24    26    27   ar
    25     8     9   ar
    26     9    13    1
    27    13    14   ar
    28    14    15   ar
    29    15    16   ar
    30    16    17    1
    31    16    18   ar
    32    18    19   ar
    33    19    20    1
    34     9    10   ar
    35    10    11   ar
    36    11    12    1
    37    12     2    1
    38    37    32   ar
    39    11     6   ar
    40    27    21   ar
    41    19    13   ar
    42    28    31    1
    43    38    39    1
    44    38    40    1
@<TRIPOS>MOLECULE
*****
 40 44 0 0 0
SMALL
GASTEIGER

@<TRIPOS>ATOM
      1 C         139.1917  136.7884  155.6444 C.3     1  UNL1        0.0437
      2 C         140.4841  137.4867  155.9481 C.3     1  UNL1        0.1368
      3 C         140.7089  137.1381  154.5066 C.3     1  UNL1        0.0437
      4 C         141.8545  138.0639  155.7512 C.3     1  UNL1        0.0643
      5 C         142.5513  138.7472  156.8903 C.3     1  UNL1        0.1023
      6 C         141.8777  138.8532  158.2263 C.ar    1  UNL1        0.0488
      7 C         142.5745  139.5365  159.3655 C.ar    1  UNL1        0.0034
      8 C         141.9010  139.6426  160.7015 C.ar    1  UNL1        0.0177
      9 C         140.5305  139.0654  160.8984 C.ar    1  UNL1        0.0851
     10 N         139.8337  138.3821  159.7593 N.ar    1  UNL1       -0.2119
     11 C         140.5073  138.2760  158.4233 C.ar    1  UNL1        0.2219
     12 O         139.8105  137.5928  157.2841 O.3     1  UNL1       -0.4676
     13 C         139.8569  139.1714  162.2345 C.ar    1  UNL1        0.0284
     14 C         138.8945  140.2903  162.5024 C.ar    1  UNL1        0.0032
     15 C         138.2209  140.3964  163.8386 C.ar    1  UNL1        0.0115
     16 C         138.5097  139.3836  164.9066 C.ar    1  UNL1        0.0585
     17 CL        137.8362  139.4896  166.2426 Cl      1  UNL1       -0.0822
     18 C         139.4722  138.2647  164.6386 C.ar    1  UNL1        0.0228
     19 C         140.1458  138.1586  163.3026 C.ar    1  UNL1        0.0599
     20 CL        141.1082  137.0397  163.0346 Cl      1  UNL1       -0.0822
     21 C         142.5978  140.3259  161.8406 C.ar    1  UNL1        0.0015
     22 C         143.6776  139.6103  162.5969 C.ar    1  UNL1        0.0009
     23 C         144.3744  140.2935  163.7360 C.ar    1  UNL1        0.0114
     24 C         143.9914  141.6924  164.1188 C.ar    1  UNL1        0.0577
     25 CL        144.6882  142.3757  165.2579 Cl      1  UNL1       -0.0822
     26 C         142.9116  142.4080  163.3625 C.ar    1  UNL1        0.0114
     27 C         142.2148  141.7247  162.2234 C.ar    1  UNL1        0.0009
     28 N         143.9218  139.3244  156.6934 N.am    1  UNL1       -0.2984
     29 C         144.0815  140.7725  156.3366 C.2     1  UNL1        0.2472
     30 O         142.8708  141.6435  156.1768 O.2     1  UNL1       -0.2701
     31 H         144.7164  138.7527  156.7983 H       1  UNL1        0.1500
     32 C         145.4519  141.3498  156.1397 C.ar    1  UNL1        0.0662
     33 C         146.2705  140.9487  154.9484 C.ar    1  UNL1        0.0057
     34 C         147.6409  141.5259  154.7514 C.ar    1  UNL1        0.0002
     35 C         148.1927  142.5041  155.7457 C.ar    1  UNL1        0.0013
     36 C         147.3741  142.9051  156.9369 C.ar    1  UNL1        0.0142
     37 C         146.0037  142.3279  157.1339 C.ar    1  UNL1        0.0459
     38 N         145.1852  142.7289  158.3252 N.pl3   1  UNL1       -0.3569
     39 H         145.5474  143.3710  158.9778 H       1  UNL1        0.1424
     40 H         144.2857  142.3501  158.4545 H       1  UNL1        0.1424
@<TRIPOS>BOND
     1     1     2    1
     2     2     3    1
     3     2     4    1
     4     4     5    1
     5     5    28    1
     6    28    29   am
     7    29    30    2
     8    29    32    1
     9    32    33   ar
    10    33    34   ar
    11    34    35   ar
    12    35    36   ar
    13    36    37   ar
    14    37    38    1
    15     5     6    1
    16     6     7   ar
    17     7     8   ar
    18     8    21    1
    19    21    22   ar
    20    22    23   ar
    21    23    24   ar
    22    24    25    1
    23    24    26   ar
    24    26    27   ar
    25     8     9   ar
    26     9    13    1
    27    13    14   ar
    28    14    15   ar
    29    15    16   ar
    30    16    17    1
    31    16    18   ar
    32    18    19   ar
    33    19    20    1
    34     9    10   ar
    35    10    11   ar
    36    11    12    1
    37    12     2    1
    38    37    32   ar
    39    11     6   ar
    40    27    21   ar
    41    19    13   ar
    42    28    31    1
    43    38    39    1
    44    38    40    1
@<TRIPOS>MOLECULE
*****
 40 44 0 0 0
SMALL
GASTEIGER

@<TRIPOS>ATOM
      1 C         145.8196  140.0337  155.4345 C.3     1  UNL1        0.0437
      2 C         144.9715  141.2303  155.7492 C.3     1  UNL1        0.1368
      3 C         145.2844  141.5045  154.3080 C.3     1  UNL1        0.0437
      4 C         144.2321  142.5221  155.5634 C.3     1  UNL1        0.0643
      5 C         143.4743  143.1241  156.7094 C.3     1  UNL1        0.1023
      6 C         143.4559  142.4343  158.0412 C.ar    1  UNL1        0.0488
      7 C         142.6981  143.0363  159.1873 C.ar    1  UNL1        0.0034
      8 C         142.6797  142.3465  160.5191 C.ar    1  UNL1        0.0177
      9 C         143.4192  141.0547  160.7050 C.ar    1  UNL1        0.0851
     10 N         144.1769  140.4527  159.5589 N.ar    1  UNL1       -0.2119
     11 C         144.1953  141.1425  158.2270 C.ar    1  UNL1        0.2219
     12 O         144.9531  140.5405  157.0810 O.3     1  UNL1       -0.4676
     13 C         143.4008  140.3649  162.0368 C.ar    1  UNL1        0.0284
     14 C         142.3524  139.3337  162.3330 C.ar    1  UNL1        0.0032
     15 C         142.3341  138.6439  163.6649 C.ar    1  UNL1        0.0115
     16 C         143.3640  138.9853  164.7005 C.ar    1  UNL1        0.0585
     17 CL        143.3457  138.2955  166.0324 Cl      1  UNL1       -0.0822
     18 C         144.4124  140.0165  164.4044 C.ar    1  UNL1        0.0228
     19 C         144.4308  140.7063  163.0725 C.ar    1  UNL1        0.0599
     20 CL        145.4791  141.7374  162.7764 Cl      1  UNL1       -0.0822
     21 C         141.9220  142.9485  161.6651 C.ar    1  UNL1        0.0015
     22 C         140.5063  142.5295  161.9308 C.ar    1  UNL1        0.0009
     23 C         139.7485  143.1315  163.0768 C.ar    1  UNL1        0.0114
     24 C         140.4064  144.1525  163.9572 C.ar    1  UNL1        0.0577
     25 CL        139.6486  144.7545  165.1032 Cl      1  UNL1       -0.0822
     26 C         141.8219  144.5714  163.6915 C.ar    1  UNL1        0.0114
     27 C         142.5797  143.9694  162.5454 C.ar    1  UNL1        0.0009
     28 N         142.7349  144.4159  156.5235 N.am    1  UNL1       -0.2984
     29 C         141.3737  144.4170  155.8933 C.2     1  UNL1        0.2472
     30 O         140.7519  143.1263  155.4489 O.2     1  UNL1       -0.2701
     31 H         143.1429  145.2630  156.8152 H       1  UNL1        0.1500
     32 C         140.6343  145.7089  155.7074 C.ar    1  UNL1        0.0662
     33 C         139.8132  146.2712  156.8297 C.ar    1  UNL1        0.0057
     34 C         139.0738  147.5630  156.6439 C.ar    1  UNL1        0.0002
     35 C         139.1555  148.2924  155.3358 C.ar    1  UNL1        0.0013
     36 C         139.9766  147.7300  154.2135 C.ar    1  UNL1        0.0142
     37 C         140.7160  146.4383  154.3993 C.ar    1  UNL1        0.0459
     38 N         141.5370  145.8759  153.2770 N.pl3   1  UNL1       -0.3569
     39 H         141.5906  146.3547  152.4184 H       1  UNL1        0.1424
     40 H         142.0223  145.0281  153.3989 H       1  UNL1        0.1424
@<TRIPOS>BOND
     1     1     2    1
     2     2     3    1
     3     2     4    1
     4     4     5    1
     5     5    28    1
     6    28    29   am
     7    29    30    2
     8    29    32    1
     9    32    33   ar
    10    33    34   ar
    11    34    35   ar
    12    35    36   ar
    13    36    37   ar
    14    37    38    1
    15     5     6    1
    16     6     7   ar
    17     7     8   ar
    18     8    21    1
    19    21    22   ar
    20    22    23   ar
    21    23    24   ar
    22    24    25    1
    23    24    26   ar
    24    26    27   ar
    25     8     9   ar
    26     9    13    1
    27    13    14   ar
    28    14    15   ar
    29    15    16   ar
    30    16    17    1
    31    16    18   ar
    32    18    19   ar
    33    19    20    1
    34     9    10   ar
    35    10    11   ar
    36    11    12    1
    37    12     2    1
    38    37    32   ar
    39    11     6   ar
    40    27    21   ar
    41    19    13   ar
    42    28    31    1
    43    38    39    1
    44    38    40    1
@<TRIPOS>MOLECULE
*****
 40 44 0 0 0
SMALL
GASTEIGER

@<TRIPOS>ATOM
      1 C         137.5352  140.6741  153.9979 C.3     1  UNL1        0.0437
      2 C         138.3120  139.5578  154.6308 C.3     1  UNL1        0.1368
      3 C         138.2345  139.0540  153.2200 C.3     1  UNL1        0.0437
      4 C         139.0619  138.2667  154.7738 C.3     1  UNL1        0.0643
      5 C         139.6196  137.8670  156.1077 C.3     1  UNL1        0.1023
      6 C         139.4273  138.7584  157.2986 C.ar    1  UNL1        0.0488
      7 C         139.9850  138.3587  158.6325 C.ar    1  UNL1        0.0034
      8 C         139.7927  139.2502  159.8234 C.ar    1  UNL1        0.0177
      9 C         139.0428  140.5414  159.6804 C.ar    1  UNL1        0.0851
     10 N         138.4852  140.9411  158.3465 N.ar    1  UNL1       -0.2119
     11 C         138.6774  140.0496  157.1556 C.ar    1  UNL1        0.2219
     12 O         138.1198  140.4493  155.8217 O.3     1  UNL1       -0.4676
     13 C         138.8506  141.4329  160.8713 C.ar    1  UNL1        0.0284
     14 C         137.7132  141.1856  161.8175 C.ar    1  UNL1        0.0032
     15 C         137.5210  142.0771  163.0085 C.ar    1  UNL1        0.0115
     16 C         138.4661  143.2159  163.2532 C.ar    1  UNL1        0.0585
     17 CL        138.2739  144.1074  164.4441 Cl      1  UNL1       -0.0822
     18 C         139.6035  143.4632  162.3070 C.ar    1  UNL1        0.0228
     19 C         139.7957  142.5717  161.1161 C.ar    1  UNL1        0.0599
     20 CL        140.9330  142.8191  160.1699 Cl      1  UNL1       -0.0822
     21 C         140.3504  138.8505  161.1573 C.ar    1  UNL1        0.0015
     22 C         139.5581  137.9556  162.0637 C.ar    1  UNL1        0.0009
     23 C         140.1158  137.5559  163.3976 C.ar    1  UNL1        0.0114
     24 C         141.4657  138.0510  163.8250 C.ar    1  UNL1        0.0577
     25 CL        142.0233  137.6513  165.1589 Cl      1  UNL1       -0.0822
     26 C         142.2579  138.9459  162.9186 C.ar    1  UNL1        0.0114
     27 C         141.7002  139.3456  161.5847 C.ar    1  UNL1        0.0009
     28 N         140.3695  136.5757  156.2506 N.am    1  UNL1       -0.2984
     29 C         141.8276  136.5130  155.9045 C.2     1  UNL1        0.2472
     30 O         142.5359  137.7414  155.4154 O.2     1  UNL1       -0.2701
     31 H         139.9046  135.7694  156.5717 H       1  UNL1        0.1500
     32 C         142.5775  135.2217  156.0474 C.ar    1  UNL1        0.0662
     33 C         143.2715  134.8962  157.3368 C.ar    1  UNL1        0.0057
     34 C         144.0214  133.6051  157.4798 C.ar    1  UNL1        0.0002
     35 C         144.0773  132.6394  156.3334 C.ar    1  UNL1        0.0013
     36 C         143.3833  132.9648  155.0440 C.ar    1  UNL1        0.0142
     37 C         142.6334  134.2560  154.9011 C.ar    1  UNL1        0.0459
     38 N         141.9394  134.5814  153.6117 N.pl3   1  UNL1       -0.3569
     39 H         141.9761  133.9476  152.8593 H       1  UNL1        0.1424
     40 H         141.4472  135.4289  153.5179 H       1  UNL1        0.1424
@<TRIPOS>BOND
     1     1     2    1
     2     2     3    1
     3     2     4    1
     4     4     5    1
     5     5    28    1
     6    28    29   am
     7    29    30    2
     8    29    32    1
     9    32    33   ar
    10    33    34   ar
    11    34    35   ar
    12    35    36   ar
    13    36    37   ar
    14    37    38    1
    15     5     6    1
    16     6     7   ar
    17     7     8   ar
    18     8    21    1
    19    21    22   ar
    20    22    23   ar
    21    23    24   ar
    22    24    25    1
    23    24    26   ar
    24    26    27   ar
    25     8     9   ar
    26     9    13    1
    27    13    14   ar
    28    14    15   ar
    29    15    16   ar
    30    16    17    1
    31    16    18   ar
    32    18    19   ar
    33    19    20    1
    34     9    10   ar
    35    10    11   ar
    36    11    12    1
    37    12     2    1
    38    37    32   ar
    39    11     6   ar
    40    27    21   ar
    41    19    13   ar
    42    28    31    1
    43    38    39    1
    44    38    40    1
@<TRIPOS>MOLECULE
*****
 40 44 0 0 0
SMALL
GASTEIGER

@<TRIPOS>ATOM
      1 C         146.3363  142.5753  156.4668 C.3     1  UNL1        0.0437
      2 C         145.3756  141.4233  156.4773 C.3     1  UNL1        0.1368
      3 C         145.8550  141.3498  155.0578 C.3     1  UNL1        0.0437
      4 C         144.5815  140.2458  155.9948 C.3     1  UNL1        0.0643
      5 C         143.6415  139.5419  156.9280 C.3     1  UNL1        0.1023
      6 C         143.4958  140.0154  158.3438 C.ar    1  UNL1        0.0488
      7 C         142.5558  139.3115  159.2771 C.ar    1  UNL1        0.0034
      8 C         142.4100  139.7850  160.6929 C.ar    1  UNL1        0.0177
      9 C         143.2042  140.9625  161.1754 C.ar    1  UNL1        0.0851
     10 N         144.1441  141.6665  160.2422 N.ar    1  UNL1       -0.2119
     11 C         144.2899  141.1929  158.8263 C.ar    1  UNL1        0.2219
     12 O         145.2298  141.8968  157.8930 O.3     1  UNL1       -0.4676
     13 C         143.0584  141.4360  162.5912 C.ar    1  UNL1        0.0284
     14 C         142.0905  142.5341  162.9189 C.ar    1  UNL1        0.0032
     15 C         141.9447  143.0076  164.3348 C.ar    1  UNL1        0.0115
     16 C         142.7669  142.3831  165.4229 C.ar    1  UNL1        0.0585
     17 CL        142.6211  142.8566  166.8386 Cl      1  UNL1       -0.0822
     18 C         143.7348  141.2851  165.0952 C.ar    1  UNL1        0.0228
     19 C         143.8806  140.8115  163.6794 C.ar    1  UNL1        0.0599
     20 CL        144.8486  139.7135  163.3517 Cl      1  UNL1       -0.0822
     21 C         141.4701  139.0810  161.6261 C.ar    1  UNL1        0.0015
     22 C         141.9370  137.8822  162.3975 C.ar    1  UNL1        0.0009
     23 C         140.9971  137.1782  163.3308 C.ar    1  UNL1        0.0114
     24 C         139.5903  137.6731  163.4927 C.ar    1  UNL1        0.0577
     25 CL        138.6504  136.9692  164.4260 Cl      1  UNL1       -0.0822
     26 C         139.1235  138.8719  162.7214 C.ar    1  UNL1        0.0114
     27 C         140.0634  139.5759  161.7881 C.ar    1  UNL1        0.0009
     28 N         142.8474  138.3643  156.4455 N.am    1  UNL1       -0.2984
     29 C         143.5388  137.2239  155.7590 C.2     1  UNL1        0.2472
     30 O         145.0245  137.2609  155.5551 O.2     1  UNL1       -0.2701
     31 H         141.8723  138.3400  156.5793 H       1  UNL1        0.1500
     32 C         142.7447  136.0464  155.2764 C.ar    1  UNL1        0.0662
     33 C         142.0406  136.1081  153.9534 C.ar    1  UNL1        0.0057
     34 C         141.2464  134.9306  153.4708 C.ar    1  UNL1        0.0002
     35 C         141.1564  133.6915  154.3113 C.ar    1  UNL1        0.0013
     36 C         141.8606  133.6298  155.6343 C.ar    1  UNL1        0.0142
     37 C         142.6547  134.8072  156.1169 C.ar    1  UNL1        0.0459
     38 N         143.3588  134.7455  157.4399 N.pl3   1  UNL1       -0.3569
     39 H         143.2997  133.9322  157.9915 H       1  UNL1        0.1424
     40 H         143.8800  135.5184  157.7566 H       1  UNL1        0.1424
@<TRIPOS>BOND
     1     1     2    1
     2     2     3    1
     3     2     4    1
     4     4     5    1
     5     5    28    1
     6    28    29   am
     7    29    30    2
     8    29    32    1
     9    32    33   ar
    10    33    34   ar
    11    34    35   ar
    12    35    36   ar
    13    36    37   ar
    14    37    38    1
    15     5     6    1
    16     6     7   ar
    17     7     8   ar
    18     8    21    1
    19    21    22   ar
    20    22    23   ar
    21    23    24   ar
    22    24    25    1
    23    24    26   ar
    24    26    27   ar
    25     8     9   ar
    26     9    13    1
    27    13    14   ar
    28    14    15   ar
    29    15    16   ar
    30    16    17    1
    31    16    18   ar
    32    18    19   ar
    33    19    20    1
    34     9    10   ar
    35    10    11   ar
    36    11    12    1
    37    12     2    1
    38    37    32   ar
    39    11     6   ar
    40    27    21   ar
    41    19    13   ar
    42    28    31    1
    43    38    39    1
    44    38    40    1
