@<TRIPOS>MOLECULE
*****
 32 34 0 0 0
SMALL
GASTEIGER

@<TRIPOS>ATOM
      1 C         140.8350  140.4952  168.6922 C.ar    1  UNL1        0.0764
      2 C         140.0305  139.9792  167.5360 C.ar    1  UNL1        0.0522
      3 C         138.6367  139.4719  167.7591 C.ar    1  UNL1        0.1515
      4 N         138.0473  139.4805  169.1385 N.ar    1  UNL1       -0.1329
      5 N         138.8516  139.9965  170.2946 N.ar    1  UNL1       -0.1409
      6 C         140.2455  140.5039  170.0715 C.ar    1  UNL1        0.1691
      7 C         141.0499  141.0198  171.2276 C.2     1  UNL1        0.2635
      8 N         142.3541  140.3698  171.5834 N.am    1  UNL1       -0.3240
      9 O         140.5501  142.1858  172.0280 O.2     1  UNL1       -0.2686
     10 H         142.6822  139.6046  171.0580 H       1  UNL1        0.1453
     11 H         142.8820  140.7085  172.3422 H       1  UNL1        0.1453
     12 N         142.2288  141.0026  168.4690 N.pl3   1  UNL1       -0.2965
     13 H         142.7225  141.4266  169.2077 H       1  UNL1        0.1537
     14 C         144.7954  140.4481  163.0741 C.3     1  UNL1        0.0323
     15 C         144.1537  140.5867  164.4228 C.ar    1  UNL1       -0.0081
     16 C         143.7510  139.3630  165.1911 C.ar    1  UNL1       -0.0002
     17 C         143.1094  139.5016  166.5398 C.ar    1  UNL1        0.0341
     18 C         142.8704  140.8639  167.1203 C.ar    1  UNL1        0.1318
     19 N         143.2731  142.0876  166.3520 N.ar    1  UNL1       -0.2352
     20 C         143.9148  141.9490  165.0032 C.ar    1  UNL1        0.0568
     21 C         144.3175  143.1728  164.2349 C.3     1  UNL1        0.0518
     22 N         137.8322  138.9559  166.6030 N.pl3   1  UNL1       -0.3170
     23 H         136.8878  138.7093  166.7315 H       1  UNL1        0.1482
     24 C         138.4668  138.8155  165.2511 C.3     1  UNL1        0.0845
     25 C         139.2402  137.5761  164.9106 C.3     1  UNL1        0.0209
     26 C         139.8748  137.4358  163.5587 C.3     1  UNL1        0.0018
     27 C         139.7359  138.5348  162.5473 C.3     1  UNL1        0.0015
     28 C         138.9625  139.7741  162.8877 C.3     1  UNL1        0.0172
     29 C         138.3279  139.9144  164.2396 C.3     1  UNL1        0.0689
     30 N         137.5546  141.1537  164.5801 N.3     1  UNL1       -0.3209
     31 H         137.1958  141.0798  165.5321 H       1  UNL1        0.1189
     32 H         136.7753  141.2575  163.9302 H       1  UNL1        0.1189
@<TRIPOS>BOND
     1    14    15    1
     2    15    16   ar
     3    16    17   ar
     4    17    18   ar
     5    18    12    1
     6    12     1    1
     7     1     2   ar
     8     2     3   ar
     9     3    22    1
    10    24    22    1
    11    24    25    1
    12    25    26    1
    13    26    27    1
    14    27    28    1
    15    28    29    1
    16    29    30    1
    17     3     4   ar
    18     4     5   ar
    19     5     6   ar
    20     6     7    1
    21     7     8   am
    22     7     9    2
    23    18    19   ar
    24    19    20   ar
    25    20    21    1
    26    20    15   ar
    27     6     1   ar
    28    29    24    1
    29    12    13    1
    30    22    23    1
    31    30    31    1
    32    30    32    1
    33     8    10    1
    34     8    11    1
@<TRIPOS>MOLECULE
*****
 32 34 0 0 0
SMALL
GASTEIGER

@<TRIPOS>ATOM
      1 C         140.4287  139.8734  166.9596 C.ar    1  UNL1        0.0764
      2 C         140.2468  139.1197  165.6754 C.ar    1  UNL1        0.0522
      3 C         138.9933  138.3301  165.4404 C.ar    1  UNL1        0.1515
      4 N         137.9218  138.2940  166.4895 N.ar    1  UNL1       -0.1329
      5 N         138.1037  139.0476  167.7736 N.ar    1  UNL1       -0.1409
      6 C         139.3572  139.8373  168.0086 C.ar    1  UNL1        0.1691
      7 C         139.5391  140.5909  169.2927 C.2     1  UNL1        0.2635
      8 N         139.2383  139.9246  170.6025 N.am    1  UNL1       -0.3240
      9 O         140.0218  142.0109  169.2670 O.2     1  UNL1       -0.2686
     10 H         138.9215  138.9926  170.6193 H       1  UNL1        0.1453
     11 H         139.3578  140.4192  171.4453 H       1  UNL1        0.1453
     12 N         141.6822  140.6631  167.1946 N.pl3   1  UNL1       -0.2965
     13 H         142.1620  140.5818  168.0504 H       1  UNL1        0.1537
     14 C         143.7719  144.3171  162.9190 C.3     1  UNL1        0.0323
     15 C         143.2495  143.4036  163.9879 C.ar    1  UNL1       -0.0081
     16 C         141.8904  143.6389  164.5772 C.ar    1  UNL1       -0.0002
     17 C         141.3679  142.7254  165.6461 C.ar    1  UNL1        0.0341
     18 C         142.2046  141.5766  166.1257 C.ar    1  UNL1        0.1318
     19 N         143.5637  141.3412  165.5364 N.ar    1  UNL1       -0.2352
     20 C         144.0862  142.2547  164.4675 C.ar    1  UNL1        0.0568
     21 C         145.4454  142.0194  163.8782 C.3     1  UNL1        0.0518
     22 N         138.8114  137.5764  164.1562 N.pl3   1  UNL1       -0.3170
     23 H         138.5370  136.6311  164.1749 H       1  UNL1        0.1482
     24 C         139.0474  138.2631  162.8437 C.3     1  UNL1        0.0845
     25 C         138.0320  139.2296  162.3096 C.3     1  UNL1        0.0209
     26 C         138.2680  139.9163  160.9971 C.3     1  UNL1        0.0018
     27 C         139.5194  139.6365  160.2186 C.3     1  UNL1        0.0015
     28 C         140.5347  138.6701  160.7527 C.3     1  UNL1        0.0172
     29 C         140.2986  137.9834  162.0652 C.3     1  UNL1        0.0689
     30 N         141.3139  137.0170  162.5993 N.3     1  UNL1       -0.3209
     31 H         140.9935  136.6473  163.4943 H       1  UNL1        0.1189
     32 H         142.2047  137.4967  162.7289 H       1  UNL1        0.1189
@<TRIPOS>BOND
     1    14    15    1
     2    15    16   ar
     3    16    17   ar
     4    17    18   ar
     5    18    12    1
     6    12     1    1
     7     1     2   ar
     8     2     3   ar
     9     3    22    1
    10    24    22    1
    11    24    25    1
    12    25    26    1
    13    26    27    1
    14    27    28    1
    15    28    29    1
    16    29    30    1
    17     3     4   ar
    18     4     5   ar
    19     5     6   ar
    20     6     7    1
    21     7     8   am
    22     7     9    2
    23    18    19   ar
    24    19    20   ar
    25    20    21    1
    26    20    15   ar
    27     6     1   ar
    28    29    24    1
    29    12    13    1
    30    22    23    1
    31    30    31    1
    32    30    32    1
    33     8    10    1
    34     8    11    1
@<TRIPOS>MOLECULE
*****
 32 34 0 0 0
SMALL
GASTEIGER

@<TRIPOS>ATOM
      1 C         140.6728  140.8383  168.3538 C.ar    1  UNL1        0.0764
      2 C         139.9355  140.2452  167.1898 C.ar    1  UNL1        0.0522
      3 C         138.6651  139.4808  167.4174 C.ar    1  UNL1        0.1515
      4 N         138.1319  139.3095  168.8090 N.ar    1  UNL1       -0.1329
      5 N         138.8691  139.9025  169.9729 N.ar    1  UNL1       -0.1409
      6 C         140.1396  140.6669  169.7453 C.ar    1  UNL1        0.1691
      7 C         140.8768  141.2600  170.9093 C.2     1  UNL1        0.2635
      8 N         142.1001  140.5793  171.4478 N.am    1  UNL1       -0.3240
      9 O         140.3906  142.5337  171.5347 O.2     1  UNL1       -0.2686
     10 H         142.4192  139.7432  171.0373 H       1  UNL1        0.1453
     11 H         142.5840  140.9685  172.2118 H       1  UNL1        0.1453
     12 N         141.9431  141.6026  168.1262 N.pl3   1  UNL1       -0.2965
     13 H         142.6409  141.6157  168.8206 H       1  UNL1        0.1537
     14 C         142.7722  144.5808  162.9839 C.3     1  UNL1        0.0323
     15 C         142.5650  143.8362  164.2695 C.ar    1  UNL1       -0.0081
     16 C         143.7290  143.1835  164.9542 C.ar    1  UNL1       -0.0002
     17 C         143.5217  142.4390  166.2398 C.ar    1  UNL1        0.0341
     18 C         142.1504  142.3472  166.8406 C.ar    1  UNL1        0.1318
     19 N         140.9864  142.9999  166.1558 N.ar    1  UNL1       -0.2352
     20 C         141.1936  143.7444  164.8703 C.ar    1  UNL1        0.0568
     21 C         140.0295  144.3971  164.1855 C.3     1  UNL1        0.0518
     22 N         137.9278  138.8878  166.2534 N.pl3   1  UNL1       -0.3170
     23 H         136.9904  138.6054  166.3567 H       1  UNL1        0.1482
     24 C         138.6189  138.7250  164.9321 C.3     1  UNL1        0.0845
     25 C         139.5241  137.5518  164.6987 C.3     1  UNL1        0.0209
     26 C         140.2152  137.3890  163.3774 C.3     1  UNL1        0.0018
     27 C         140.0011  138.3994  162.2895 C.3     1  UNL1        0.0015
     28 C         139.0960  139.5725  162.5230 C.3     1  UNL1        0.0172
     29 C         138.4049  139.7353  163.8443 C.3     1  UNL1        0.0689
     30 N         137.4997  140.9083  164.0778 N.3     1  UNL1       -0.3209
     31 H         137.1180  140.8605  165.0224 H       1  UNL1        0.1189
     32 H         136.7366  140.8889  163.4013 H       1  UNL1        0.1189
@<TRIPOS>BOND
     1    14    15    1
     2    15    16   ar
     3    16    17   ar
     4    17    18   ar
     5    18    12    1
     6    12     1    1
     7     1     2   ar
     8     2     3   ar
     9     3    22    1
    10    24    22    1
    11    24    25    1
    12    25    26    1
    13    26    27    1
    14    27    28    1
    15    28    29    1
    16    29    30    1
    17     3     4   ar
    18     4     5   ar
    19     5     6   ar
    20     6     7    1
    21     7     8   am
    22     7     9    2
    23    18    19   ar
    24    19    20   ar
    25    20    21    1
    26    20    15   ar
    27     6     1   ar
    28    29    24    1
    29    12    13    1
    30    22    23    1
    31    30    31    1
    32    30    32    1
    33     8    10    1
    34     8    11    1
@<TRIPOS>MOLECULE
*****
 32 34 0 0 0
SMALL
GASTEIGER

@<TRIPOS>ATOM
      1 C         140.4876  139.2996  165.4110 C.ar    1  UNL1        0.0764
      2 C         140.4486  139.8637  166.8004 C.ar    1  UNL1        0.0522
      3 C         139.2915  139.5542  167.7033 C.ar    1  UNL1        0.1515
      4 N         138.1732  138.6807  167.2168 N.ar    1  UNL1       -0.1329
      5 N         138.2122  138.1167  165.8275 N.ar    1  UNL1       -0.1409
      6 C         139.3694  138.4261  164.9245 C.ar    1  UNL1        0.1691
      7 C         139.4083  137.8621  163.5352 C.2     1  UNL1        0.2635
      8 N         138.2685  138.1111  162.5924 N.am    1  UNL1       -0.3240
      9 O         140.5871  137.0491  163.0886 O.2     1  UNL1       -0.2686
     10 H         137.4948  138.6447  162.8856 H       1  UNL1        0.1453
     11 H         138.2940  137.7408  161.6806 H       1  UNL1        0.1453
     12 N         141.6447  139.6091  164.5081 N.pl3   1  UNL1       -0.2965
     13 H         142.0485  138.8954  163.9632 H       1  UNL1        0.1537
     14 C         143.8126  145.1961  164.2173 C.3     1  UNL1        0.0323
     15 C         143.2706  143.7994  164.2900 C.ar    1  UNL1       -0.0081
     16 C         144.1922  142.6513  164.5774 C.ar    1  UNL1       -0.0002
     17 C         143.6502  141.2545  164.6501 C.ar    1  UNL1        0.0341
     18 C         142.1867  141.0058  164.4354 C.ar    1  UNL1        0.1318
     19 N         141.2651  142.1539  164.1480 N.ar    1  UNL1       -0.2352
     20 C         141.8071  143.5507  164.0753 C.ar    1  UNL1        0.0568
     21 C         140.8855  144.6987  163.7879 C.3     1  UNL1        0.0518
     22 N         139.2525  140.1183  169.0927 N.pl3   1  UNL1       -0.3170
     23 H         138.5399  139.8456  169.7149 H       1  UNL1        0.1482
     24 C         140.2992  141.0978  169.5341 C.3     1  UNL1        0.0845
     25 C         140.0677  142.5701  169.3645 C.3     1  UNL1        0.0209
     26 C         141.1145  143.5496  169.8059 C.3     1  UNL1        0.0018
     27 C         142.3928  143.0568  170.4169 C.3     1  UNL1        0.0015
     28 C         142.6242  141.5845  170.5865 C.3     1  UNL1        0.0172
     29 C         141.5774  140.6050  170.1451 C.3     1  UNL1        0.0689
     30 N         141.8089  139.1328  170.3147 N.3     1  UNL1       -0.3209
     31 H         141.0007  138.6189  169.9636 H       1  UNL1        0.1189
     32 H         141.9428  138.9213  171.3035 H       1  UNL1        0.1189
@<TRIPOS>BOND
     1    14    15    1
     2    15    16   ar
     3    16    17   ar
     4    17    18   ar
     5    18    12    1
     6    12     1    1
     7     1     2   ar
     8     2     3   ar
     9     3    22    1
    10    24    22    1
    11    24    25    1
    12    25    26    1
    13    26    27    1
    14    27    28    1
    15    28    29    1
    16    29    30    1
    17     3     4   ar
    18     4     5   ar
    19     5     6   ar
    20     6     7    1
    21     7     8   am
    22     7     9    2
    23    18    19   ar
    24    19    20   ar
    25    20    21    1
    26    20    15   ar
    27     6     1   ar
    28    29    24    1
    29    12    13    1
    30    22    23    1
    31    30    31    1
    32    30    32    1
    33     8    10    1
    34     8    11    1
@<TRIPOS>MOLECULE
*****
 32 34 0 0 0
SMALL
GASTEIGER

@<TRIPOS>ATOM
      1 C         141.6072  141.2115  167.9815 C.ar    1  UNL1        0.0764
      2 C         142.1682  140.3886  166.8597 C.ar    1  UNL1        0.0522
      3 C         142.9505  139.1447  167.1606 C.ar    1  UNL1        0.1515
      4 N         143.1719  138.7236  168.5831 N.ar    1  UNL1       -0.1329
      5 N         142.6109  139.5463  169.7048 N.ar    1  UNL1       -0.1409
      6 C         141.8286  140.7904  169.4040 C.ar    1  UNL1        0.1691
      7 C         141.2676  141.6131  170.5258 C.2     1  UNL1        0.2635
      8 N         142.1917  142.2944  171.4911 N.am    1  UNL1       -0.3240
      9 O         139.7825  141.7546  170.6821 O.2     1  UNL1       -0.2686
     10 H         143.1664  142.2015  171.3884 H       1  UNL1        0.1453
     11 H         141.8235  142.8344  172.2273 H       1  UNL1        0.1453
     12 N         140.8249  142.4554  167.6807 N.pl3   1  UNL1       -0.2965
     13 H         140.8302  143.2063  168.3173 H       1  UNL1        0.1537
     14 C         137.6627  142.8549  162.5972 C.3     1  UNL1        0.0323
     15 C         138.4533  142.7551  163.8681 C.ar    1  UNL1       -0.0081
     16 C         139.0689  143.9848  164.4670 C.ar    1  UNL1       -0.0002
     17 C         139.8594  143.8849  165.7379 C.ar    1  UNL1        0.0341
     18 C         140.0343  142.5553  166.4098 C.ar    1  UNL1        0.1318
     19 N         139.4187  141.3256  165.8109 N.ar    1  UNL1       -0.2352
     20 C         138.6282  141.4255  164.5400 C.ar    1  UNL1        0.0568
     21 C         138.0126  140.1956  163.9411 C.3     1  UNL1        0.0518
     22 N         143.5116  138.3219  166.0388 N.pl3   1  UNL1       -0.3170
     23 H         144.3839  137.8774  166.1428 H       1  UNL1        0.1482
     24 C         142.7435  138.1762  164.7586 C.3     1  UNL1        0.0845
     25 C         141.3866  137.5366  164.7667 C.3     1  UNL1        0.0209
     26 C         140.6186  137.3909  163.4865 C.3     1  UNL1        0.0018
     27 C         141.2074  137.8848  162.1983 C.3     1  UNL1        0.0015
     28 C         142.5641  138.5244  162.1903 C.3     1  UNL1        0.0172
     29 C         143.3322  138.6701  163.4705 C.3     1  UNL1        0.0689
     30 N         144.6890  139.3096  163.4624 N.3     1  UNL1       -0.3209
     31 H         145.0629  139.3257  164.4113 H       1  UNL1        0.1189
     32 H         144.6129  140.2640  163.1108 H       1  UNL1        0.1189
@<TRIPOS>BOND
     1    14    15    1
     2    15    16   ar
     3    16    17   ar
     4    17    18   ar
     5    18    12    1
     6    12     1    1
     7     1     2   ar
     8     2     3   ar
     9     3    22    1
    10    24    22    1
    11    24    25    1
    12    25    26    1
    13    26    27    1
    14    27    28    1
    15    28    29    1
    16    29    30    1
    17     3     4   ar
    18     4     5   ar
    19     5     6   ar
    20     6     7    1
    21     7     8   am
    22     7     9    2
    23    18    19   ar
    24    19    20   ar
    25    20    21    1
    26    20    15   ar
    27     6     1   ar
    28    29    24    1
    29    12    13    1
    30    22    23    1
    31    30    31    1
    32    30    32    1
    33     8    10    1
    34     8    11    1
@<TRIPOS>MOLECULE
*****
 32 34 0 0 0
SMALL
GASTEIGER

@<TRIPOS>ATOM
      1 C         140.6407  139.6028  160.1952 C.ar    1  UNL1        0.0764
      2 C         139.5830  140.4889  160.7837 C.ar    1  UNL1        0.0522
      3 C         139.2280  141.7817  160.1109 C.ar    1  UNL1        0.1515
      4 N         139.9306  142.1884  158.8496 N.ar    1  UNL1       -0.1329
      5 N         140.9883  141.3024  158.2611 N.ar    1  UNL1       -0.1409
      6 C         141.3434  140.0096  158.9340 C.ar    1  UNL1        0.1691
      7 C         142.4010  139.1236  158.3455 C.2     1  UNL1        0.2635
      8 N         142.2645  138.6265  156.9369 N.am    1  UNL1       -0.3240
      9 O         143.5952  138.7348  159.1656 O.2     1  UNL1       -0.2686
     10 H         141.4806  138.8816  156.3986 H       1  UNL1        0.1453
     11 H         142.9587  138.0449  156.5506 H       1  UNL1        0.1453
     12 N         140.9958  138.3101  160.8681 N.pl3   1  UNL1       -0.2965
     13 H         140.8233  137.4545  160.4126 H       1  UNL1        0.1537
     14 C         143.4670  138.3533  166.3353 C.3     1  UNL1        0.0323
     15 C         142.8492  138.3425  164.9685 C.ar    1  UNL1       -0.0081
     16 C         141.5551  137.6205  164.7361 C.ar    1  UNL1       -0.0002
     17 C         140.9373  137.6097  163.3692 C.ar    1  UNL1        0.0341
     18 C         141.6136  138.3209  162.2349 C.ar    1  UNL1        0.1318
     19 N         142.9076  139.0429  162.4673 N.ar    1  UNL1       -0.2352
     20 C         143.5255  139.0537  163.8342 C.ar    1  UNL1        0.0568
     21 C         144.8196  139.7757  164.0666 C.3     1  UNL1        0.0518
     22 N         138.1703  142.6677  160.6994 N.pl3   1  UNL1       -0.3170
     23 H         137.3731  142.9006  160.1707 H       1  UNL1        0.1482
     24 C         138.3273  143.1990  162.0934 C.3     1  UNL1        0.0845
     25 C         139.1802  144.4073  162.3439 C.3     1  UNL1        0.0209
     26 C         139.3372  144.9385  163.7378 C.3     1  UNL1        0.0018
     27 C         138.6412  144.2615  164.8813 C.3     1  UNL1        0.0015
     28 C         137.7884  143.0532  164.6307 C.3     1  UNL1        0.0172
     29 C         137.6314  142.5220  163.2368 C.3     1  UNL1        0.0689
     30 N         136.7786  141.3137  162.9862 N.3     1  UNL1       -0.3209
     31 H         136.7848  141.0938  161.9902 H       1  UNL1        0.1189
     32 H         135.8226  141.5042  163.2865 H       1  UNL1        0.1189
@<TRIPOS>BOND
     1    14    15    1
     2    15    16   ar
     3    16    17   ar
     4    17    18   ar
     5    18    12    1
     6    12     1    1
     7     1     2   ar
     8     2     3   ar
     9     3    22    1
    10    24    22    1
    11    24    25    1
    12    25    26    1
    13    26    27    1
    14    27    28    1
    15    28    29    1
    16    29    30    1
    17     3     4   ar
    18     4     5   ar
    19     5     6   ar
    20     6     7    1
    21     7     8   am
    22     7     9    2
    23    18    19   ar
    24    19    20   ar
    25    20    21    1
    26    20    15   ar
    27     6     1   ar
    28    29    24    1
    29    12    13    1
    30    22    23    1
    31    30    31    1
    32    30    32    1
    33     8    10    1
    34     8    11    1
@<TRIPOS>MOLECULE
*****
 32 34 0 0 0
SMALL
GASTEIGER

@<TRIPOS>ATOM
      1 C         142.0068  144.1706  160.9419 C.ar    1  UNL1        0.0764
      2 C         141.2800  144.0885  162.2515 C.ar    1  UNL1        0.0522
      3 C         139.9022  144.6669  162.3822 C.ar    1  UNL1        0.1515
      4 N         139.2512  145.3276  161.2033 N.ar    1  UNL1       -0.1329
      5 N         139.9780  145.4097  159.8937 N.ar    1  UNL1       -0.1409
      6 C         141.3558  144.8312  159.7630 C.ar    1  UNL1        0.1691
      7 C         142.0826  144.9134  158.4534 C.2     1  UNL1        0.2635
      8 N         142.2314  146.2351  157.7599 N.am    1  UNL1       -0.3240
      9 O         142.6605  143.6739  157.8374 O.2     1  UNL1       -0.2686
     10 H         141.8521  147.0486  158.1642 H       1  UNL1        0.1453
     11 H         142.7084  146.2890  156.9003 H       1  UNL1        0.1453
     12 N         143.3846  143.5921  160.8112 N.pl3   1  UNL1       -0.2965
     13 H         143.9900  143.9170  160.1061 H       1  UNL1        0.1537
     14 C         145.2058  139.2981  164.5854 C.3     1  UNL1        0.0323
     15 C         144.7505  140.3716  163.6418 C.ar    1  UNL1       -0.0081
     16 C         145.1886  141.7906  163.8525 C.ar    1  UNL1       -0.0002
     17 C         144.7333  142.8641  162.9090 C.ar    1  UNL1        0.0341
     18 C         143.8399  142.5186  161.7547 C.ar    1  UNL1        0.1318
     19 N         143.4018  141.0996  161.5440 N.ar    1  UNL1       -0.2352
     20 C         143.8571  140.0261  162.4876 C.ar    1  UNL1        0.0568
     21 C         143.4189  138.6070  162.2768 C.3     1  UNL1        0.0518
     22 N         139.1754  144.5848  163.6918 N.pl3   1  UNL1       -0.3170
     23 H         138.6903  145.3695  164.0357 H       1  UNL1        0.1482
     24 C         139.1876  143.3071  164.4775 C.3     1  UNL1        0.0845
     25 C         140.1222  143.1506  165.6403 C.3     1  UNL1        0.0209
     26 C         140.1345  141.8728  166.4260 C.3     1  UNL1        0.0018
     27 C         139.2121  140.7516  166.0488 C.3     1  UNL1        0.0015
     28 C         138.2775  140.9082  164.8861 C.3     1  UNL1        0.0172
     29 C         138.2653  142.1859  164.1004 C.3     1  UNL1        0.0689
     30 N         137.3308  142.3424  162.9376 N.3     1  UNL1       -0.3209
     31 H         137.4558  143.2659  162.5229 H       1  UNL1        0.1189
     32 H         136.3680  142.2417  163.2592 H       1  UNL1        0.1189
@<TRIPOS>BOND
     1    14    15    1
     2    15    16   ar
     3    16    17   ar
     4    17    18   ar
     5    18    12    1
     6    12     1    1
     7     1     2   ar
     8     2     3   ar
     9     3    22    1
    10    24    22    1
    11    24    25    1
    12    25    26    1
    13    26    27    1
    14    27    28    1
    15    28    29    1
    16    29    30    1
    17     3     4   ar
    18     4     5   ar
    19     5     6   ar
    20     6     7    1
    21     7     8   am
    22     7     9    2
    23    18    19   ar
    24    19    20   ar
    25    20    21    1
    26    20    15   ar
    27     6     1   ar
    28    29    24    1
    29    12    13    1
    30    22    23    1
    31    30    31    1
    32    30    32    1
    33     8    10    1
    34     8    11    1
@<TRIPOS>MOLECULE
*****
 32 34 0 0 0
SMALL
GASTEIGER

@<TRIPOS>ATOM
      1 C         142.5865  141.7943  163.3136 C.ar    1  UNL1        0.0764
      2 C         141.2981  141.0413  163.4657 C.ar    1  UNL1        0.0522
      3 C         140.2328  141.1580  162.4161 C.ar    1  UNL1        0.1515
      4 N         140.4559  142.0276  161.2145 N.ar    1  UNL1       -0.1329
      5 N         141.7443  142.7806  161.0624 N.ar    1  UNL1       -0.1409
      6 C         142.8096  142.6640  162.1120 C.ar    1  UNL1        0.1691
      7 C         144.0979  143.4170  161.9599 C.2     1  UNL1        0.2635
      8 N         145.2662  142.7735  161.2736 N.am    1  UNL1       -0.3240
      9 O         144.2180  144.8134  162.4941 O.2     1  UNL1       -0.2686
     10 H         145.1874  141.8569  160.9230 H       1  UNL1        0.1453
     11 H         146.1118  143.2677  161.1738 H       1  UNL1        0.1453
     12 N         143.6517  141.6777  164.3632 N.pl3   1  UNL1       -0.2965
     13 H         144.5700  141.9737  164.1675 H       1  UNL1        0.1537
     14 C         142.3161  139.4068  169.7538 C.3     1  UNL1        0.0323
     15 C         142.6500  139.9745  168.4062 C.ar    1  UNL1       -0.0081
     16 C         142.8992  139.0565  167.2464 C.ar    1  UNL1       -0.0002
     17 C         143.2331  139.6242  165.8987 C.ar    1  UNL1        0.0341
     18 C         143.3178  141.1099  165.7108 C.ar    1  UNL1        0.1318
     19 N         143.0686  142.0280  166.8706 N.ar    1  UNL1       -0.2352
     20 C         142.7347  141.4602  168.2183 C.ar    1  UNL1        0.0568
     21 C         142.4855  142.3783  169.3781 C.3     1  UNL1        0.0518
     22 N         138.9444  140.4050  162.5681 N.pl3   1  UNL1       -0.3170
     23 H         138.2450  140.4820  161.8795 H       1  UNL1        0.1482
     24 C         138.7217  139.5347  163.7694 C.3     1  UNL1        0.0845
     25 C         138.2058  140.1336  165.0442 C.3     1  UNL1        0.0209
     26 C         137.9831  139.2633  166.2454 C.3     1  UNL1        0.0018
     27 C         138.2761  137.7940  166.1718 C.3     1  UNL1        0.0015
     28 C         138.7920  137.1951  164.8969 C.3     1  UNL1        0.0172
     29 C         139.0147  138.0655  163.6957 C.3     1  UNL1        0.0689
     30 N         139.5305  137.4666  162.4209 N.3     1  UNL1       -0.3209
     31 H         139.6214  138.1968  161.7146 H       1  UNL1        0.1189
     32 H         138.8788  136.7544  162.0917 H       1  UNL1        0.1189
@<TRIPOS>BOND
     1    14    15    1
     2    15    16   ar
     3    16    17   ar
     4    17    18   ar
     5    18    12    1
     6    12     1    1
     7     1     2   ar
     8     2     3   ar
     9     3    22    1
    10    24    22    1
    11    24    25    1
    12    25    26    1
    13    26    27    1
    14    27    28    1
    15    28    29    1
    16    29    30    1
    17     3     4   ar
    18     4     5   ar
    19     5     6   ar
    20     6     7    1
    21     7     8   am
    22     7     9    2
    23    18    19   ar
    24    19    20   ar
    25    20    21    1
    26    20    15   ar
    27     6     1   ar
    28    29    24    1
    29    12    13    1
    30    22    23    1
    31    30    31    1
    32    30    32    1
    33     8    10    1
    34     8    11    1
@<TRIPOS>MOLECULE
*****
 32 34 0 0 0
SMALL
GASTEIGER

@<TRIPOS>ATOM
      1 C         139.2044  141.3426  165.1637 C.ar    1  UNL1        0.0764
      2 C         139.7853  141.1954  166.5389 C.ar    1  UNL1        0.0522
      3 C         139.3819  140.0379  167.4035 C.ar    1  UNL1        0.1515
      4 N         138.3976  139.0277  166.8930 N.ar    1  UNL1       -0.1329
      5 N         137.8167  139.1748  165.5179 N.ar    1  UNL1       -0.1409
      6 C         138.2201  140.3323  164.6532 C.ar    1  UNL1        0.1691
      7 C         137.6392  140.4795  163.2782 C.2     1  UNL1        0.2635
      8 N         137.6906  139.3304  162.3154 N.am    1  UNL1       -0.3240
      9 O         137.0070  141.7757  162.8659 O.2     1  UNL1       -0.2686
     10 H         138.1056  138.4797  162.5859 H       1  UNL1        0.1453
     11 H         137.3093  139.4270  161.4128 H       1  UNL1        0.1453
     12 N         139.6078  142.5000  164.2991 N.pl3   1  UNL1       -0.2965
     13 H         139.0164  143.2828  164.2171 H       1  UNL1        0.1537
     14 C         144.8256  142.3592  161.3403 C.3     1  UNL1        0.0323
     15 C         143.5211  142.3944  162.0800 C.ar    1  UNL1       -0.0081
     16 C         142.2287  142.2812  161.3271 C.ar    1  UNL1       -0.0002
     17 C         140.9243  142.3164  162.0668 C.ar    1  UNL1        0.0341
     18 C         140.9122  142.4648  163.5594 C.ar    1  UNL1        0.1318
     19 N         142.2046  142.5780  164.3123 N.ar    1  UNL1       -0.2352
     20 C         143.5091  142.5428  163.5725 C.ar    1  UNL1        0.0568
     21 C         144.8015  142.6560  164.3255 C.3     1  UNL1        0.0518
     22 N         139.9628  139.8907  168.7786 N.pl3   1  UNL1       -0.3170
     23 H         139.6935  139.1343  169.3484 H       1  UNL1        0.1482
     24 C         140.9539  140.8960  169.2857 C.3     1  UNL1        0.0845
     25 C         140.4871  142.2492  169.7341 C.3     1  UNL1        0.0209
     26 C         141.4782  143.2545  170.2411 C.3     1  UNL1        0.0018
     27 C         142.9362  142.9066  170.2998 C.3     1  UNL1        0.0015
     28 C         143.4029  141.5534  169.8514 C.3     1  UNL1        0.0172
     29 C         142.4118  140.5482  169.3443 C.3     1  UNL1        0.0689
     30 N         142.8786  139.1950  168.8959 N.3     1  UNL1       -0.3209
     31 H         142.0779  138.6450  168.5849 H       1  UNL1        0.1189
     32 H         143.3371  138.7189  169.6727 H       1  UNL1        0.1189
@<TRIPOS>BOND
     1    14    15    1
     2    15    16   ar
     3    16    17   ar
     4    17    18   ar
     5    18    12    1
     6    12     1    1
     7     1     2   ar
     8     2     3   ar
     9     3    22    1
    10    24    22    1
    11    24    25    1
    12    25    26    1
    13    26    27    1
    14    27    28    1
    15    28    29    1
    16    29    30    1
    17     3     4   ar
    18     4     5   ar
    19     5     6   ar
    20     6     7    1
    21     7     8   am
    22     7     9    2
    23    18    19   ar
    24    19    20   ar
    25    20    21    1
    26    20    15   ar
    27     6     1   ar
    28    29    24    1
    29    12    13    1
    30    22    23    1
    31    30    31    1
    32    30    32    1
    33     8    10    1
    34     8    11    1
