@<TRIPOS>MOLECULE
*****
 36 39 0 0 0
SMALL
GASTEIGER

@<TRIPOS>ATOM
      1 C         141.6721  138.8093  159.6558 C.3     1  UNL1        0.2196
      2 C         140.2535  138.7666  160.1417 C.3     1  UNL1        0.1398
      3 N         140.2516  138.1608  161.5140 N.am    1  UNL1       -0.2725
      4 C         139.0443  137.9278  162.3731 C.2     1  UNL1        0.2303
      5 O         137.6832  138.3130  161.8743 O.2     1  UNL1       -0.2745
      6 C         141.6689  137.8291  161.8762 C.3     1  UNL1        0.1325
      7 C         142.5468  138.2298  160.7278 C.3     1  UNL1        0.2219
      8 F         144.0377  138.0778  160.6628 F       1  UNL1       -0.2315
      9 O         142.1346  139.3384  158.3307 O.3     1  UNL1       -0.4717
     10 C         143.2271  136.0649  156.3710 C.ar    1  UNL1        0.0415
     11 C         144.2652  136.6231  155.4432 C.ar    1  UNL1        0.1020
     12 N         144.5930  138.0864  155.4779 N.ar    1  UNL1       -0.2264
     13 C         143.8828  138.9915  156.4404 C.ar    1  UNL1        0.1597
     14 N         144.2107  140.4549  156.4751 N.pl3   1  UNL1       -0.3402
     15 C         142.8448  138.4333  157.3682 C.ar    1  UNL1        0.1696
     16 C         142.5169  136.9700  157.3335 C.ar    1  UNL1        0.0429
     17 H         144.8920  140.8213  155.8661 H       1  UNL1        0.1438
     18 H         143.7446  141.0490  157.1068 H       1  UNL1        0.1438
     19 C         141.1024  131.4254  155.0139 C.3     1  UNL1        0.1321
     20 N         141.9226  132.4691  155.7125 N.ar    1  UNL1       -0.3059
     21 C         142.8669  132.2305  156.8534 C.ar    1  UNL1        0.1786
     22 N         143.4704  133.5484  157.2389 N.ar    1  UNL1       -0.2238
     23 C         142.8992  134.6016  156.3363 C.ar    1  UNL1        0.1018
     24 C         141.9427  133.9345  155.3930 C.ar    1  UNL1        0.0965
     25 C         139.1982  137.3094  163.7310 C.3     1  UNL1        0.1116
     26 C         139.3593  138.1835  164.9394 C.ar    1  UNL1       -0.0129
     27 C         138.2379  138.3115  165.9274 C.ar    1  UNL1       -0.0007
     28 C         138.3991  139.1856  167.1357 C.ar    1  UNL1        0.0369
     29 C         139.6816  139.9316  167.3560 C.ar    1  UNL1        0.1468
     30 C         140.8030  139.8036  166.3680 C.ar    1  UNL1        0.0369
     31 C         140.6419  138.9295  165.1597 C.ar    1  UNL1       -0.0007
     32 O         139.8427  140.8056  168.5643 O.3     1  UNL1       -0.4045
     33 C         139.7765  140.2063  169.9377 C.3     1  UNL1        0.5753
     34 F         139.7103  139.6069  171.3112 F       1  UNL1       -0.1328
     35 F         138.4867  140.9289  170.1909 F       1  UNL1       -0.1328
     36 F         141.0663  139.4836  169.6845 F       1  UNL1       -0.1328
@<TRIPOS>BOND
     1    19    20    1
     2    20    21   ar
     3    21    22   ar
     4    22    23   ar
     5    23    10    1
     6    10    11   ar
     7    11    12   ar
     8    12    13   ar
     9    13    14    1
    10    13    15   ar
    11    15     9    1
    12     1     9    1
    13     1     2    1
    14     2     3    1
    15     3     4   am
    16     4     5    2
    17     4    25    1
    18    25    26    1
    19    26    27   ar
    20    27    28   ar
    21    28    29   ar
    22    29    32    1
    23    32    33    1
    24    33    34    1
    25    33    35    1
    26    33    36    1
    27    29    30   ar
    28    30    31   ar
    29     3     6    1
    30     6     7    1
    31     7     8    1
    32    15    16   ar
    33    23    24   ar
    34    24    20   ar
    35    16    10   ar
    36     7     1    1
    37    31    26   ar
    38    14    17    1
    39    14    18    1
@<TRIPOS>MOLECULE
*****
 36 39 0 0 0
SMALL
GASTEIGER

@<TRIPOS>ATOM
      1 C         141.9246  138.5252  159.9058 C.3     1  UNL1        0.2196
      2 C         140.4686  138.7294  160.2033 C.3     1  UNL1        0.1398
      3 N         140.1902  138.1657  161.5652 N.am    1  UNL1       -0.2725
      4 C         138.8613  138.1562  162.2606 C.2     1  UNL1        0.2303
      5 O         137.6586  138.7490  161.5882 O.2     1  UNL1       -0.2745
      6 C         141.4742  137.6131  162.1095 C.3     1  UNL1        0.1325
      7 C         142.5461  137.8353  161.0839 C.3     1  UNL1        0.2219
      8 F         143.9865  137.4374  161.2136 F       1  UNL1       -0.2315
      9 O         142.6345  138.9383  158.6507 O.3     1  UNL1       -0.4717
     10 C         142.8866  135.6106  156.5029 C.ar    1  UNL1        0.0415
     11 C         142.7521  136.1592  155.1134 C.ar    1  UNL1        0.1020
     12 N         142.5784  137.6341  154.9029 N.ar    1  UNL1       -0.2264
     13 C         142.5392  138.5605  156.0820 C.ar    1  UNL1        0.1597
     14 N         142.3655  140.0355  155.8715 N.pl3   1  UNL1       -0.3402
     15 C         142.6737  138.0119  157.4716 C.ar    1  UNL1        0.1696
     16 C         142.8474  136.5370  157.6820 C.ar    1  UNL1        0.0429
     17 H         142.2772  140.3956  154.9594 H       1  UNL1        0.1438
     18 H         142.3398  140.6435  156.6453 H       1  UNL1        0.1438
     19 C         144.8620  130.9511  158.0088 C.3     1  UNL1        0.1321
     20 N         143.9683  131.9939  157.4056 N.ar    1  UNL1       -0.3059
     21 C         142.6867  131.7379  156.6692 C.ar    1  UNL1        0.1786
     22 N         142.1256  133.0615  156.2414 N.ar    1  UNL1       -0.2238
     23 C         143.0603  134.1356  156.7135 C.ar    1  UNL1        0.1018
     24 C         144.1991  133.4758  157.4330 C.ar    1  UNL1        0.0965
     25 C         138.7350  137.5540  163.6286 C.3     1  UNL1        0.1116
     26 C         138.9860  138.3956  164.8447 C.ar    1  UNL1       -0.0129
     27 C         140.0559  139.4466  164.8218 C.ar    1  UNL1       -0.0007
     28 C         140.3068  140.2881  166.0380 C.ar    1  UNL1        0.0369
     29 C         139.4878  140.0785  167.2770 C.ar    1  UNL1        0.1468
     30 C         138.4178  139.0274  167.3000 C.ar    1  UNL1        0.0369
     31 C         138.1669  138.1859  166.0838 C.ar    1  UNL1       -0.0007
     32 O         139.7387  140.9199  168.4931 O.3     1  UNL1       -0.4045
     33 C         139.7438  140.2887  169.8538 C.3     1  UNL1        0.5753
     34 F         139.7489  139.6576  171.2146 F       1  UNL1       -0.1328
     35 F         141.0038  139.5523  169.5075 F       1  UNL1       -0.1328
     36 F         138.4837  141.0251  170.2001 F       1  UNL1       -0.1328
@<TRIPOS>BOND
     1    19    20    1
     2    20    21   ar
     3    21    22   ar
     4    22    23   ar
     5    23    10    1
     6    10    11   ar
     7    11    12   ar
     8    12    13   ar
     9    13    14    1
    10    13    15   ar
    11    15     9    1
    12     1     9    1
    13     1     2    1
    14     2     3    1
    15     3     4   am
    16     4     5    2
    17     4    25    1
    18    25    26    1
    19    26    27   ar
    20    27    28   ar
    21    28    29   ar
    22    29    32    1
    23    32    33    1
    24    33    34    1
    25    33    35    1
    26    33    36    1
    27    29    30   ar
    28    30    31   ar
    29     3     6    1
    30     6     7    1
    31     7     8    1
    32    15    16   ar
    33    23    24   ar
    34    24    20   ar
    35    16    10   ar
    36     7     1    1
    37    31    26   ar
    38    14    17    1
    39    14    18    1
@<TRIPOS>MOLECULE
*****
 36 39 0 0 0
SMALL
GASTEIGER

@<TRIPOS>ATOM
      1 C         138.3316  142.4695  161.7152 C.3     1  UNL1        0.2196
      2 C         138.4949  140.9984  161.9590 C.3     1  UNL1        0.1398
      3 N         138.3422  140.7527  163.4308 N.am    1  UNL1       -0.2725
      4 C         138.4315  139.4215  164.1163 C.2     1  UNL1        0.2303
      5 O         138.6957  138.1814  163.3149 O.2     1  UNL1       -0.2745
      6 C         138.0846  142.0718  164.0968 C.3     1  UNL1        0.1325
      7 C         138.0781  143.1329  163.0365 C.3     1  UNL1        0.2219
      8 F         137.8568  144.5998  163.2585 F       1  UNL1       -0.2315
      9 O         138.4085  143.1565  160.3841 O.3     1  UNL1       -0.4717
     10 C         141.8111  142.6817  158.3973 C.ar    1  UNL1        0.0415
     11 C         142.4154  144.0472  158.5397 C.ar    1  UNL1        0.1020
     12 N         141.6840  145.1157  159.2968 N.ar    1  UNL1       -0.2264
     13 C         140.3484  144.8189  159.9116 C.ar    1  UNL1        0.1597
     14 N         139.6171  145.8875  160.6687 N.pl3   1  UNL1       -0.3402
     15 C         139.7441  143.4534  159.7693 C.ar    1  UNL1        0.1696
     16 C         140.4754  142.3848  159.0121 C.ar    1  UNL1        0.0429
     17 H         140.0137  146.7837  160.7622 H       1  UNL1        0.1438
     18 H         138.7405  145.6927  161.0723 H       1  UNL1        0.1438
     19 C         145.4162  140.1816  155.4591 C.3     1  UNL1        0.1321
     20 N         144.1995  140.4639  156.2896 N.ar    1  UNL1       -0.3059
     21 C         143.1359  139.4732  156.6606 C.ar    1  UNL1        0.1786
     22 N         142.1118  140.1835  157.4952 N.ar    1  UNL1       -0.2238
     23 C         142.5424  141.6131  157.6402 C.ar    1  UNL1        0.1018
     24 C         143.8326  141.7863  156.8951 C.ar    1  UNL1        0.0965
     25 C         138.2565  139.3304  165.6033 C.3     1  UNL1        0.1116
     26 C         139.4287  139.5554  166.5117 C.ar    1  UNL1       -0.0129
     27 C         139.2046  139.8893  167.9568 C.ar    1  UNL1       -0.0007
     28 C         140.3770  140.1142  168.8651 C.ar    1  UNL1        0.0369
     29 C         141.7734  140.0053  168.3284 C.ar    1  UNL1        0.1468
     30 C         141.9976  139.6714  166.8832 C.ar    1  UNL1        0.0369
     31 C         140.8252  139.4465  165.9749 C.ar    1  UNL1       -0.0007
     32 O         142.9456  140.2302  169.2367 O.3     1  UNL1       -0.4045
     33 C         143.1091  141.5458  169.9384 C.3     1  UNL1        0.5753
     34 F         143.2726  142.8614  170.6402 F       1  UNL1       -0.1328
     35 F         143.6792  142.1430  168.6861 F       1  UNL1       -0.1328
     36 F         142.5390  140.9486  171.1908 F       1  UNL1       -0.1328
@<TRIPOS>BOND
     1    19    20    1
     2    20    21   ar
     3    21    22   ar
     4    22    23   ar
     5    23    10    1
     6    10    11   ar
     7    11    12   ar
     8    12    13   ar
     9    13    14    1
    10    13    15   ar
    11    15     9    1
    12     1     9    1
    13     1     2    1
    14     2     3    1
    15     3     4   am
    16     4     5    2
    17     4    25    1
    18    25    26    1
    19    26    27   ar
    20    27    28   ar
    21    28    29   ar
    22    29    32    1
    23    32    33    1
    24    33    34    1
    25    33    35    1
    26    33    36    1
    27    29    30   ar
    28    30    31   ar
    29     3     6    1
    30     6     7    1
    31     7     8    1
    32    15    16   ar
    33    23    24   ar
    34    24    20   ar
    35    16    10   ar
    36     7     1    1
    37    31    26   ar
    38    14    17    1
    39    14    18    1
@<TRIPOS>MOLECULE
*****
 36 39 0 0 0
SMALL
GASTEIGER

@<TRIPOS>ATOM
      1 C         141.9725  138.7740  159.9081 C.3     1  UNL1        0.2196
      2 C         140.7675  138.3719  160.7060 C.3     1  UNL1        0.1398
      3 N         141.2139  138.0907  162.1101 N.am    1  UNL1       -0.2725
      4 C         140.3340  137.6574  163.2449 C.2     1  UNL1        0.2303
      5 O         138.8625  137.4691  163.0234 O.2     1  UNL1       -0.2745
      6 C         142.6949  138.3190  162.1802 C.3     1  UNL1        0.1325
      7 C         143.1636  138.7413  160.8192 C.3     1  UNL1        0.2219
      8 F         144.5757  139.0726  160.4366 F       1  UNL1       -0.2315
      9 O         141.9842  139.1438  158.4545 O.3     1  UNL1       -0.4717
     10 C         143.1411  135.9532  156.3974 C.ar    1  UNL1        0.0415
     11 C         144.1733  136.5582  155.4926 C.ar    1  UNL1        0.1020
     12 N         144.4757  138.0251  155.5751 N.ar    1  UNL1       -0.2264
     13 C         143.7460  138.8869  156.5624 C.ar    1  UNL1        0.1597
     14 N         144.0485  140.3539  156.6449 N.pl3   1  UNL1       -0.3402
     15 C         142.7139  138.2819  157.4672 C.ar    1  UNL1        0.1696
     16 C         142.4114  136.8151  157.3847 C.ar    1  UNL1        0.0429
     17 H         144.7259  140.7509  156.0511 H       1  UNL1        0.1438
     18 H         143.5695  140.9195  157.2929 H       1  UNL1        0.1438
     19 C         143.2991  130.7393  157.2166 C.3     1  UNL1        0.1321
     20 N         142.9113  132.0898  156.6914 N.ar    1  UNL1       -0.3059
     21 C         141.8351  132.3683  155.6843 C.ar    1  UNL1        0.1786
     22 N         141.7902  133.8495  155.4516 N.ar    1  UNL1       -0.2238
     23 C         142.8387  134.4863  156.3149 C.ar    1  UNL1        0.1018
     24 C         143.5315  133.3988  157.0811 C.ar    1  UNL1        0.0965
     25 C         140.9256  137.4124  164.6014 C.3     1  UNL1        0.1116
     26 C         141.1472  138.5600  165.5415 C.ar    1  UNL1       -0.0129
     27 C         140.0357  139.5286  165.8179 C.ar    1  UNL1       -0.0007
     28 C         140.2573  140.6762  166.7581 C.ar    1  UNL1        0.0369
     29 C         141.5905  140.8553  167.4219 C.ar    1  UNL1        0.1468
     30 C         142.7021  139.8866  167.1455 C.ar    1  UNL1        0.0369
     31 C         142.4804  138.7390  166.2054 C.ar    1  UNL1       -0.0007
     32 O         141.8121  142.0028  168.3620 O.3     1  UNL1       -0.4045
     33 C         143.1572  142.2055  168.9941 C.3     1  UNL1        0.5753
     34 F         144.5024  142.4082  169.6261 F       1  UNL1       -0.1328
     35 F         142.6435  141.6190  170.2755 F       1  UNL1       -0.1328
     36 F         143.6710  142.7920  167.7126 F       1  UNL1       -0.1328
@<TRIPOS>BOND
     1    19    20    1
     2    20    21   ar
     3    21    22   ar
     4    22    23   ar
     5    23    10    1
     6    10    11   ar
     7    11    12   ar
     8    12    13   ar
     9    13    14    1
    10    13    15   ar
    11    15     9    1
    12     1     9    1
    13     1     2    1
    14     2     3    1
    15     3     4   am
    16     4     5    2
    17     4    25    1
    18    25    26    1
    19    26    27   ar
    20    27    28   ar
    21    28    29   ar
    22    29    32    1
    23    32    33    1
    24    33    34    1
    25    33    35    1
    26    33    36    1
    27    29    30   ar
    28    30    31   ar
    29     3     6    1
    30     6     7    1
    31     7     8    1
    32    15    16   ar
    33    23    24   ar
    34    24    20   ar
    35    16    10   ar
    36     7     1    1
    37    31    26   ar
    38    14    17    1
    39    14    18    1
@<TRIPOS>MOLECULE
*****
 36 39 0 0 0
SMALL
GASTEIGER

@<TRIPOS>ATOM
      1 C         144.2834  140.2484  162.1369 C.3     1  UNL1        0.2196
      2 C         143.3311  139.2733  162.7634 C.3     1  UNL1        0.1398
      3 N         143.6942  139.1362  164.2123 N.am    1  UNL1       -0.2725
      4 C         143.0021  138.2623  165.2158 C.2     1  UNL1        0.2303
      5 O         141.8318  137.4222  164.7980 O.2     1  UNL1       -0.2745
      6 C         144.8711  140.0266  164.4814 C.3     1  UNL1        0.1325
      7 C         145.2352  140.7139  163.1987 C.3     1  UNL1        0.2219
      8 F         146.3546  141.6946  163.0109 F       1  UNL1       -0.2315
      9 O         144.2839  140.6817  160.7009 O.3     1  UNL1       -0.4717
     10 C         141.6849  143.6803  160.7607 C.ar    1  UNL1        0.0415
     11 C         141.9998  144.3544  159.4583 C.ar    1  UNL1        0.1020
     12 N         143.0761  143.8043  158.5700 N.ar    1  UNL1       -0.2264
     13 C         143.8374  142.5800  158.9843 C.ar    1  UNL1        0.1597
     14 N         144.9137  142.0299  158.0960 N.pl3   1  UNL1       -0.3402
     15 C         143.5226  141.9060  160.2867 C.ar    1  UNL1        0.1696
     16 C         142.4463  142.4561  161.1749 C.ar    1  UNL1        0.0429
     17 H         145.1204  142.4723  157.2411 H       1  UNL1        0.1438
     18 H         145.4134  141.2264  158.3678 H       1  UNL1        0.1438
     19 C         138.0117  144.0996  164.5307 C.3     1  UNL1        0.1321
     20 N         138.9203  144.4232  163.3819 N.ar    1  UNL1       -0.3059
     21 C         138.9846  145.7310  162.6499 C.ar    1  UNL1        0.1786
     22 N         140.0281  145.6118  161.5790 N.ar    1  UNL1       -0.2238
     23 C         140.6086  144.2305  161.6490 C.ar    1  UNL1        0.1018
     24 C         139.9240  143.4959  162.7633 C.ar    1  UNL1        0.0965
     25 C         143.4803  138.2285  166.6371 C.3     1  UNL1        0.1116
     26 C         142.9535  139.2222  167.6296 C.ar    1  UNL1       -0.0129
     27 C         142.6324  140.6207  167.1926 C.ar    1  UNL1       -0.0007
     28 C         142.1056  141.6144  168.1852 C.ar    1  UNL1        0.0369
     29 C         141.8999  141.2095  169.6148 C.ar    1  UNL1        0.1468
     30 C         142.2210  139.8109  170.0518 C.ar    1  UNL1        0.0369
     31 C         142.7478  138.8173  169.0593 C.ar    1  UNL1       -0.0007
     32 O         141.3732  142.2031  170.6073 O.3     1  UNL1       -0.4045
     33 C         140.7050  143.4582  170.1296 C.3     1  UNL1        0.5753
     34 F         140.0367  144.7133  169.6520 F       1  UNL1       -0.1328
     35 F         139.4387  142.6917  169.8870 F       1  UNL1       -0.1328
     36 F         141.9713  144.2247  170.3723 F       1  UNL1       -0.1328
@<TRIPOS>BOND
     1    19    20    1
     2    20    21   ar
     3    21    22   ar
     4    22    23   ar
     5    23    10    1
     6    10    11   ar
     7    11    12   ar
     8    12    13   ar
     9    13    14    1
    10    13    15   ar
    11    15     9    1
    12     1     9    1
    13     1     2    1
    14     2     3    1
    15     3     4   am
    16     4     5    2
    17     4    25    1
    18    25    26    1
    19    26    27   ar
    20    27    28   ar
    21    28    29   ar
    22    29    32    1
    23    32    33    1
    24    33    34    1
    25    33    35    1
    26    33    36    1
    27    29    30   ar
    28    30    31   ar
    29     3     6    1
    30     6     7    1
    31     7     8    1
    32    15    16   ar
    33    23    24   ar
    34    24    20   ar
    35    16    10   ar
    36     7     1    1
    37    31    26   ar
    38    14    17    1
    39    14    18    1
@<TRIPOS>MOLECULE
*****
 36 39 0 0 0
SMALL
GASTEIGER

@<TRIPOS>ATOM
      1 C         139.8333  139.2656  158.6443 C.3     1  UNL1        0.2196
      2 C         140.4423  138.5084  159.7871 C.3     1  UNL1        0.1398
      3 N         139.4991  138.5875  160.9507 N.am    1  UNL1       -0.2725
      4 C         139.7107  137.9692  162.3008 C.2     1  UNL1        0.2303
      5 O         140.9593  137.1862  162.5797 O.2     1  UNL1       -0.2745
      6 C         138.3071  139.3937  160.5272 C.3     1  UNL1        0.1325
      7 C         138.5137  139.8128  159.1017 C.3     1  UNL1        0.2219
      8 F         137.5668  140.6346  158.2783 F       1  UNL1       -0.2315
      9 O         140.4379  139.4443  157.2833 O.3     1  UNL1       -0.4717
     10 C         142.5221  136.2238  156.2666 C.ar    1  UNL1        0.0415
     11 C         143.8633  136.8322  155.9821 C.ar    1  UNL1        0.1020
     12 N         144.0626  138.3113  156.1313 N.ar    1  UNL1       -0.2264
     13 C         142.9208  139.1821  156.5650 C.ar    1  UNL1        0.1597
     14 N         143.1203  140.6613  156.7142 N.pl3   1  UNL1       -0.3402
     15 C         141.5797  138.5736  156.8495 C.ar    1  UNL1        0.1696
     16 C         141.3803  137.0945  156.7003 C.ar    1  UNL1        0.0429
     17 H         144.0005  141.0606  156.5275 H       1  UNL1        0.1438
     18 H         142.3709  141.2328  156.9989 H       1  UNL1        0.1438
     19 C         140.7033  131.5402  154.6424 C.3     1  UNL1        0.1321
     20 N         141.4867  132.5918  155.3708 N.ar    1  UNL1       -0.3059
     21 C         142.5450  132.3448  156.4048 C.ar    1  UNL1        0.1786
     22 N         143.0617  133.6753  156.8661 N.ar    1  UNL1       -0.2238
     23 C         142.3227  134.7445  156.1174 C.ar    1  UNL1        0.1018
     24 C         141.3493  134.0749  155.1932 C.ar    1  UNL1        0.0965
     25 C         138.6736  138.1338  163.3720 C.3     1  UNL1        0.1116
     26 C         139.0174  138.8480  164.6454 C.ar    1  UNL1       -0.0129
     27 C         138.3185  138.4840  165.9218 C.ar    1  UNL1       -0.0007
     28 C         138.6624  139.1983  167.1952 C.ar    1  UNL1        0.0369
     29 C         139.7051  140.2766  167.1923 C.ar    1  UNL1        0.1468
     30 C         140.4040  140.6407  165.9159 C.ar    1  UNL1        0.0369
     31 C         140.0601  139.9264  164.6424 C.ar    1  UNL1       -0.0007
     32 O         140.0489  140.9909  168.4656 O.3     1  UNL1       -0.4045
     33 C         139.8687  140.3005  169.7850 C.3     1  UNL1        0.5753
     34 F         139.6884  139.6101  171.1044 F       1  UNL1       -0.1328
     35 F         138.6747  141.1617  170.0726 F       1  UNL1       -0.1328
     36 F         141.0626  139.4392  169.4974 F       1  UNL1       -0.1328
@<TRIPOS>BOND
     1    19    20    1
     2    20    21   ar
     3    21    22   ar
     4    22    23   ar
     5    23    10    1
     6    10    11   ar
     7    11    12   ar
     8    12    13   ar
     9    13    14    1
    10    13    15   ar
    11    15     9    1
    12     1     9    1
    13     1     2    1
    14     2     3    1
    15     3     4   am
    16     4     5    2
    17     4    25    1
    18    25    26    1
    19    26    27   ar
    20    27    28   ar
    21    28    29   ar
    22    29    32    1
    23    32    33    1
    24    33    34    1
    25    33    35    1
    26    33    36    1
    27    29    30   ar
    28    30    31   ar
    29     3     6    1
    30     6     7    1
    31     7     8    1
    32    15    16   ar
    33    23    24   ar
    34    24    20   ar
    35    16    10   ar
    36     7     1    1
    37    31    26   ar
    38    14    17    1
    39    14    18    1
@<TRIPOS>MOLECULE
*****
 36 39 0 0 0
SMALL
GASTEIGER

@<TRIPOS>ATOM
      1 C         137.7778  142.1177  161.8928 C.3     1  UNL1        0.2196
      2 C         138.0675  140.6870  162.2380 C.3     1  UNL1        0.1398
      3 N         138.0380  140.5553  163.7319 N.am    1  UNL1       -0.2725
      4 C         138.2748  139.2956  164.5108 C.2     1  UNL1        0.2303
      5 O         138.5739  138.0139  163.7912 O.2     1  UNL1       -0.2745
      6 C         137.7300  141.9048  164.3101 C.3     1  UNL1        0.1325
      7 C         137.5692  142.8704  163.1735 C.3     1  UNL1        0.2219
      8 F         137.2550  144.3320  163.2960 F       1  UNL1       -0.2315
      9 O         137.7088  142.6945  160.5099 O.3     1  UNL1       -0.4717
     10 C         141.4969  142.5479  159.3356 C.ar    1  UNL1        0.0415
     11 C         141.3335  142.5906  157.8452 C.ar    1  UNL1        0.1020
     12 N         139.9619  142.6679  157.2430 N.ar    1  UNL1       -0.2264
     13 C         138.7537  142.7025  158.1312 C.ar    1  UNL1        0.1597
     14 N         137.3820  142.7799  157.5290 N.pl3   1  UNL1       -0.3402
     15 C         138.9170  142.6599  159.6217 C.ar    1  UNL1        0.1696
     16 C         140.2886  142.5825  160.2238 C.ar    1  UNL1        0.0429
     17 H         137.2748  142.8079  156.5507 H       1  UNL1        0.1438
     18 H         136.5890  142.8026  158.1119 H       1  UNL1        0.1438
     19 C         145.4311  141.9541  162.8070 C.3     1  UNL1        0.1321
     20 N         144.6769  142.1976  161.5335 N.ar    1  UNL1       -0.3059
     21 C         145.2816  142.5055  160.1957 C.ar    1  UNL1        0.1786
     22 N         144.1640  142.6742  159.2096 N.ar    1  UNL1       -0.2238
     23 C         142.8685  142.4706  159.9379 C.ar    1  UNL1        0.1018
     24 C         143.1855  142.1760  161.3741 C.ar    1  UNL1        0.0965
     25 C         138.2126  139.3175  166.0093 C.3     1  UNL1        0.1116
     26 C         139.4439  139.6309  166.8067 C.ar    1  UNL1       -0.0129
     27 C         139.3281  139.9703  168.2632 C.ar    1  UNL1       -0.0007
     28 C         140.5594  140.2837  169.0605 C.ar    1  UNL1        0.0369
     29 C         141.9065  140.2578  168.4013 C.ar    1  UNL1        0.1468
     30 C         142.0224  139.9185  166.9447 C.ar    1  UNL1        0.0369
     31 C         140.7911  139.6050  166.1474 C.ar    1  UNL1       -0.0007
     32 O         143.1377  140.5712  169.1986 O.3     1  UNL1       -0.4045
     33 C         143.2857  141.9124  169.8539 C.3     1  UNL1        0.5753
     34 F         143.4336  143.2535  170.5092 F       1  UNL1       -0.1328
     35 F         143.8633  142.4682  168.5861 F       1  UNL1       -0.1328
     36 F         142.7080  141.3566  171.1217 F       1  UNL1       -0.1328
@<TRIPOS>BOND
     1    19    20    1
     2    20    21   ar
     3    21    22   ar
     4    22    23   ar
     5    23    10    1
     6    10    11   ar
     7    11    12   ar
     8    12    13   ar
     9    13    14    1
    10    13    15   ar
    11    15     9    1
    12     1     9    1
    13     1     2    1
    14     2     3    1
    15     3     4   am
    16     4     5    2
    17     4    25    1
    18    25    26    1
    19    26    27   ar
    20    27    28   ar
    21    28    29   ar
    22    29    32    1
    23    32    33    1
    24    33    34    1
    25    33    35    1
    26    33    36    1
    27    29    30   ar
    28    30    31   ar
    29     3     6    1
    30     6     7    1
    31     7     8    1
    32    15    16   ar
    33    23    24   ar
    34    24    20   ar
    35    16    10   ar
    36     7     1    1
    37    31    26   ar
    38    14    17    1
    39    14    18    1
@<TRIPOS>MOLECULE
*****
 36 39 0 0 0
SMALL
GASTEIGER

@<TRIPOS>ATOM
      1 C         139.8419  143.5604  159.4668 C.3     1  UNL1        0.2196
      2 C         138.8649  142.6538  160.1551 C.3     1  UNL1        0.1398
      3 N         138.7631  143.0845  161.5883 N.am    1  UNL1       -0.2725
      4 C         137.8991  142.4533  162.6394 C.2     1  UNL1        0.2303
      5 O         137.0323  141.2794  162.2921 O.2     1  UNL1       -0.2745
      6 C         139.6772  144.2573  161.7859 C.3     1  UNL1        0.1325
      7 C         140.3439  144.5515  160.4747 C.3     1  UNL1        0.2219
      8 F         141.3381  145.6447  160.2167 F       1  UNL1       -0.2315
      9 O         140.2458  143.4886  158.0240 O.3     1  UNL1       -0.4717
     10 C         138.8707  146.2785  155.5591 C.ar    1  UNL1        0.0415
     11 C         137.7547  145.5365  154.8854 C.ar    1  UNL1        0.1020
     12 N         137.4691  144.1118  155.2579 N.ar    1  UNL1       -0.2264
     13 C         138.2994  143.4292  156.3041 C.ar    1  UNL1        0.1597
     14 N         138.0137  142.0045  156.6766 N.pl3   1  UNL1       -0.3402
     15 C         139.4154  144.1712  156.9778 C.ar    1  UNL1        0.1696
     16 C         139.7011  145.5959  156.6053 C.ar    1  UNL1        0.0429
     17 H         137.2812  141.5175  156.2344 H       1  UNL1        0.1438
     18 H         138.5587  141.5565  157.3633 H       1  UNL1        0.1438
     19 C         138.7990  151.5575  155.4719 C.3     1  UNL1        0.1321
     20 N         139.1235  150.1296  155.1465 N.ar    1  UNL1       -0.3059
     21 C         140.0688  149.6613  154.0801 C.ar    1  UNL1        0.1786
     22 N         140.0891  148.1616  154.1049 N.ar    1  UNL1       -0.2238
     23 C         139.1564  147.7032  155.1866 C.ar    1  UNL1        0.1018
     24 C         138.5596  148.9195  155.8303 C.ar    1  UNL1        0.0965
     25 C         137.9018  142.9959  164.0378 C.3     1  UNL1        0.1116
     26 C         138.8435  142.4310  165.0597 C.ar    1  UNL1       -0.0129
     27 C         139.8539  143.3206  165.7213 C.ar    1  UNL1       -0.0007
     28 C         140.7955  142.7557  166.7432 C.ar    1  UNL1        0.0369
     29 C         140.7267  141.3012  167.1035 C.ar    1  UNL1        0.1468
     30 C         139.7162  140.4116  166.4419 C.ar    1  UNL1        0.0369
     31 C         138.7746  140.9765  165.4200 C.ar    1  UNL1       -0.0007
     32 O         141.6683  140.7364  168.1253 O.3     1  UNL1       -0.4045
     33 C         142.5828  139.6055  167.7584 C.3     1  UNL1        0.5753
     34 F         143.4974  138.4746  167.3914 F       1  UNL1       -0.1328
     35 F         142.2392  138.9109  169.0427 F       1  UNL1       -0.1328
     36 F         142.9264  140.3000  166.4741 F       1  UNL1       -0.1328
@<TRIPOS>BOND
     1    19    20    1
     2    20    21   ar
     3    21    22   ar
     4    22    23   ar
     5    23    10    1
     6    10    11   ar
     7    11    12   ar
     8    12    13   ar
     9    13    14    1
    10    13    15   ar
    11    15     9    1
    12     1     9    1
    13     1     2    1
    14     2     3    1
    15     3     4   am
    16     4     5    2
    17     4    25    1
    18    25    26    1
    19    26    27   ar
    20    27    28   ar
    21    28    29   ar
    22    29    32    1
    23    32    33    1
    24    33    34    1
    25    33    35    1
    26    33    36    1
    27    29    30   ar
    28    30    31   ar
    29     3     6    1
    30     6     7    1
    31     7     8    1
    32    15    16   ar
    33    23    24   ar
    34    24    20   ar
    35    16    10   ar
    36     7     1    1
    37    31    26   ar
    38    14    17    1
    39    14    18    1
@<TRIPOS>MOLECULE
*****
 36 39 0 0 0
SMALL
GASTEIGER

@<TRIPOS>ATOM
      1 C         138.8372  141.6620  159.1355 C.3     1  UNL1        0.2196
      2 C         138.6070  142.8309  160.0470 C.3     1  UNL1        0.1398
      3 N         138.2031  142.2989  161.3901 N.am    1  UNL1       -0.2725
      4 C         137.8761  143.1203  162.6017 C.2     1  UNL1        0.2303
      5 O         137.9392  144.6174  162.5323 O.2     1  UNL1       -0.2745
      6 C         138.1836  140.8012  161.3087 C.3     1  UNL1        0.1325
      7 C         138.5755  140.4076  159.9152 C.3     1  UNL1        0.2219
      8 F         138.6863  139.0057  159.3933 F       1  UNL1       -0.2315
      9 O         139.2555  141.7347  157.6969 O.3     1  UNL1       -0.4717
     10 C         135.8689  140.7643  155.8696 C.ar    1  UNL1        0.0415
     11 C         136.3333  140.6635  154.4468 C.ar    1  UNL1        0.1020
     12 N         137.7717  140.9197  154.1075 N.ar    1  UNL1       -0.2264
     13 C         138.7458  141.2768  155.1908 C.ar    1  UNL1        0.1597
     14 N         140.1843  141.5330  154.8514 N.pl3   1  UNL1       -0.3402
     15 C         138.2814  141.3776  156.6135 C.ar    1  UNL1        0.1696
     16 C         136.8430  141.1214  156.9529 C.ar    1  UNL1        0.0429
     17 H         140.4890  141.4669  153.9176 H       1  UNL1        0.1438
     18 H         140.8236  141.7674  155.5624 H       1  UNL1        0.1438
     19 C         130.5908  140.8939  155.7921 C.3     1  UNL1        0.1321
     20 N         132.0044  140.5676  156.1734 N.ar    1  UNL1       -0.3059
     21 C         132.4294  139.6598  157.2894 C.ar    1  UNL1        0.1786
     22 N         133.9288  139.6230  157.3113 N.ar    1  UNL1       -0.2238
     23 C         134.4304  140.5080  156.2090 C.ar    1  UNL1        0.1018
     24 C         133.2411  141.0918  155.5058 C.ar    1  UNL1        0.0965
     25 C         137.4860  142.4447  163.8829 C.3     1  UNL1        0.1116
     26 C         138.5439  142.0010  164.8493 C.ar    1  UNL1       -0.0129
     27 C         139.5474  142.9878  165.3682 C.ar    1  UNL1       -0.0007
     28 C         140.6053  142.5440  166.3346 C.ar    1  UNL1        0.0369
     29 C         140.6597  141.1133  166.7821 C.ar    1  UNL1        0.1468
     30 C         139.6562  140.1264  166.2632 C.ar    1  UNL1        0.0369
     31 C         138.5983  140.5703  165.2968 C.ar    1  UNL1       -0.0007
     32 O         141.7175  140.6695  167.7484 O.3     1  UNL1       -0.4045
     33 C         142.6509  139.5549  167.3789 C.3     1  UNL1        0.5753
     34 F         143.5843  138.4404  167.0094 F       1  UNL1       -0.1328
     35 F         142.8690  140.1833  166.0344 F       1  UNL1       -0.1328
     36 F         142.4328  138.9266  168.7234 F       1  UNL1       -0.1328
@<TRIPOS>BOND
     1    19    20    1
     2    20    21   ar
     3    21    22   ar
     4    22    23   ar
     5    23    10    1
     6    10    11   ar
     7    11    12   ar
     8    12    13   ar
     9    13    14    1
    10    13    15   ar
    11    15     9    1
    12     1     9    1
    13     1     2    1
    14     2     3    1
    15     3     4   am
    16     4     5    2
    17     4    25    1
    18    25    26    1
    19    26    27   ar
    20    27    28   ar
    21    28    29   ar
    22    29    32    1
    23    32    33    1
    24    33    34    1
    25    33    35    1
    26    33    36    1
    27    29    30   ar
    28    30    31   ar
    29     3     6    1
    30     6     7    1
    31     7     8    1
    32    15    16   ar
    33    23    24   ar
    34    24    20   ar
    35    16    10   ar
    36     7     1    1
    37    31    26   ar
    38    14    17    1
    39    14    18    1
