@<TRIPOS>MOLECULE
*****
 44 49 0 0 0
SMALL
GASTEIGER

@<TRIPOS>ATOM
      1 C         138.5299  141.9311  159.9730 C.3     1  UNL1        0.0546
      2 C         138.0498  140.5776  159.5401 C.3     1  UNL1        0.0180
      3 C         139.1486  139.9253  158.7546 C.3     1  UNL1        0.0310
      4 C         139.5310  138.6856  158.0016 C.3     1  UNL1        0.0939
      5 N         140.9266  138.8699  157.4835 N.am    1  UNL1       -0.2790
      6 C         141.7053  137.8752  156.6746 C.2     1  UNL1        0.2260
      7 O         143.0986  138.2009  156.2246 O.2     1  UNL1       -0.2749
      8 C         141.4067  140.2234  157.9164 C.3     1  UNL1        0.1020
      9 C         140.3079  140.8757  158.7019 C.3     1  UNL1        0.0902
     10 C         139.9255  142.1153  159.4550 C.3     1  UNL1        0.0261
     11 C         141.4672  141.8261  158.6493 C.2     1  UNL1        0.2267
     12 O         141.5853  142.8031  157.5173 O.2     1  UNL1       -0.2748
     13 N         142.5084  141.7996  159.7288 N.am    1  UNL1       -0.2750
     14 C         143.6677  142.7500  159.6762 C.3     1  UNL1        0.1000
     15 C         144.7088  142.7234  160.7556 C.3     1  UNL1        0.0670
     16 C         144.5907  141.7464  161.8877 C.ar    1  UNL1        0.0583
     17 N         145.6320  141.7198  162.9672 N.ar    1  UNL1       -0.2484
     18 C         145.5139  140.7429  164.0992 C.ar    1  UNL1        0.1023
     19 C         144.3545  139.7924  164.1518 C.ar    1  UNL1        0.0902
     20 C         143.3134  139.8190  163.0724 C.ar    1  UNL1        0.0040
     21 C         143.4315  140.7960  161.9403 C.ar    1  UNL1        0.0113
     22 C         142.3903  140.8226  160.8609 C.3     1  UNL1        0.1213
     23 C         144.2364  138.8154  165.2839 C.3     1  UNL1        0.4200
     24 F         144.1183  137.8385  166.4159 F       1  UNL1       -0.1658
     25 F         145.7292  138.6720  165.3158 F       1  UNL1       -0.1658
     26 F         142.7437  138.9589  165.2519 F       1  UNL1       -0.1658
     27 N         137.7512  142.9258  160.7819 N.3     1  UNL1       -0.2975
     28 H         137.8112  143.8171  160.2896 H       1  UNL1        0.1232
     29 C         138.8542  144.4557  162.5686 C.3     1  UNL1        0.1591
     30 C         139.2326  144.7227  163.9954 C.3     1  UNL1        0.1729
     31 O         138.8863  143.7267  165.0621 O.3     1  UNL1       -0.3511
     32 C         138.1616  142.4636  164.7021 C.3     1  UNL1        0.1437
     33 C         137.7832  142.1966  163.2754 C.3     1  UNL1        0.0503
     34 C         138.1296  143.1927  162.2086 C.3     1  UNL1        0.0865
     35 C         140.5845  145.4814  160.9242 C.3     1  UNL1        0.1742
     36 O         139.2005  145.4518  161.5019 O.3     1  UNL1       -0.3496
     37 C         141.0907  136.5548  156.3158 C.3     1  UNL1        0.0899
     38 C         141.8201  135.6103  155.4071 C.3     1  UNL1        0.0359
     39 C         142.4192  134.3507  155.9591 C.ar    1  UNL1       -0.0217
     40 C         141.8584  133.0172  155.5628 C.ar    1  UNL1       -0.0043
     41 C         142.4575  131.7577  156.1148 C.ar    1  UNL1       -0.0003
     42 C         143.6173  131.8318  157.0631 C.ar    1  UNL1       -0.0000
     43 C         144.1781  133.1653  157.4593 C.ar    1  UNL1       -0.0003
     44 C         143.5790  134.4248  156.9073 C.ar    1  UNL1       -0.0043
@<TRIPOS>BOND
     1    35    36    1
     2    36    29    1
     3    29    30    1
     4    30    31    1
     5    31    32    1
     6    32    33    1
     7    33    34    1
     8    34    27    1
     9     1    27    1
    10     1     2    1
    11     3     2    1
    12     3     4    1
    13     4     5    1
    14     5     6   am
    15     6     7    2
    16     6    37    1
    17    37    38    1
    18    38    39    1
    19    39    40   ar
    20    40    41   ar
    21    41    42   ar
    22    42    43   ar
    23    43    44   ar
    24     5     8    1
    25     8     9    1
    26     9    11    1
    27    11    12    2
    28    11    13   am
    29    13    14    1
    30    14    15    1
    31    15    16    1
    32    16    17   ar
    33    17    18   ar
    34    18    19   ar
    35    19    23    1
    36    23    24    1
    37    23    25    1
    38    23    26    1
    39    19    20   ar
    40    20    21   ar
    41    21    22    1
    42     9    10    1
    43    34    29    1
    44    10     1    1
    45     9     3    1
    46    22    13    1
    47    44    39   ar
    48    21    16   ar
    49    27    28    1
@<TRIPOS>MOLECULE
*****
 44 49 0 0 0
SMALL
GASTEIGER

@<TRIPOS>ATOM
      1 C         139.8570  138.9812  158.3042 C.3     1  UNL1        0.0546
      2 C         138.9789  140.1971  158.3237 C.3     1  UNL1        0.0180
      3 C         139.7279  141.2987  159.0133 C.3     1  UNL1        0.0310
      4 C         139.6481  142.7311  159.4515 C.3     1  UNL1        0.0939
      5 N         140.9398  143.0811  160.1291 N.am    1  UNL1       -0.2790
      6 C         141.2915  144.4134  160.7220 C.2     1  UNL1        0.2260
      7 O         142.6288  144.6160  161.3707 O.2     1  UNL1       -0.2749
      8 C         141.8178  141.8652  160.1096 C.3     1  UNL1        0.1020
      9 C         141.0689  140.7636  159.4200 C.3     1  UNL1        0.0902
     10 C         141.1487  139.3313  158.9817 C.3     1  UNL1        0.0261
     11 C         142.4098  140.2284  159.8266 C.2     1  UNL1        0.2267
     12 O         143.4839  140.0354  158.7975 O.2     1  UNL1       -0.2748
     13 N         142.6768  139.8863  161.2625 N.am    1  UNL1       -0.2750
     14 C         144.0177  139.3511  161.6692 C.3     1  UNL1        0.1000
     15 C         144.2846  139.0090  163.1051 C.3     1  UNL1        0.0670
     16 C         143.2106  139.2020  164.1342 C.ar    1  UNL1        0.0583
     17 N         143.4775  138.8598  165.5701 N.ar    1  UNL1       -0.2484
     18 C         142.4035  139.0529  166.5993 C.ar    1  UNL1        0.1023
     19 C         141.0625  139.5881  166.1925 C.ar    1  UNL1        0.0902
     20 C         140.7956  139.9302  164.7567 C.ar    1  UNL1        0.0040
     21 C         141.8696  139.7372  163.7275 C.ar    1  UNL1        0.0113
     22 C         141.6027  140.0793  162.2917 C.3     1  UNL1        0.1213
     23 C         139.9885  139.7811  167.2217 C.3     1  UNL1        0.4200
     24 F         138.9144  139.9741  168.2508 F       1  UNL1       -0.1658
     25 F         138.9516  139.7906  166.1378 F       1  UNL1       -0.1658
     26 F         141.0253  139.7715  168.3056 F       1  UNL1       -0.1658
     27 N         139.5052  137.6490  157.7112 N.3     1  UNL1       -0.2975
     28 H         139.7913  136.9409  158.3874 H       1  UNL1        0.1232
     29 C         139.1836  137.0786  155.1970 C.3     1  UNL1        0.1591
     30 C         139.7598  136.6711  153.8734 C.3     1  UNL1        0.1729
     31 O         141.2337  136.4266  153.7403 O.3     1  UNL1       -0.3511
     32 C         142.1315  136.5896  154.9308 C.3     1  UNL1        0.1437
     33 C         141.5554  136.9970  156.2545 C.3     1  UNL1        0.0503
     34 C         140.0814  137.2415  156.3876 C.3     1  UNL1        0.0865
     35 C         136.9383  137.9000  154.1802 C.3     1  UNL1        0.1742
     36 O         137.7097  137.3231  155.3301 O.3     1  UNL1       -0.3496
     37 C         140.3061  145.5429  160.6663 C.3     1  UNL1        0.0899
     38 C         139.5365  145.9280  161.8948 C.3     1  UNL1        0.0359
     39 C         139.2027  144.8913  162.9264 C.ar    1  UNL1       -0.0217
     40 C         138.0653  143.9414  162.6944 C.ar    1  UNL1       -0.0043
     41 C         137.7316  142.9049  163.7260 C.ar    1  UNL1       -0.0003
     42 C         138.5353  142.8183  164.9896 C.ar    1  UNL1       -0.0000
     43 C         139.6727  143.7682  165.2216 C.ar    1  UNL1       -0.0003
     44 C         140.0064  144.8048  164.1900 C.ar    1  UNL1       -0.0043
@<TRIPOS>BOND
     1    35    36    1
     2    36    29    1
     3    29    30    1
     4    30    31    1
     5    31    32    1
     6    32    33    1
     7    33    34    1
     8    34    27    1
     9     1    27    1
    10     1     2    1
    11     3     2    1
    12     3     4    1
    13     4     5    1
    14     5     6   am
    15     6     7    2
    16     6    37    1
    17    37    38    1
    18    38    39    1
    19    39    40   ar
    20    40    41   ar
    21    41    42   ar
    22    42    43   ar
    23    43    44   ar
    24     5     8    1
    25     8     9    1
    26     9    11    1
    27    11    12    2
    28    11    13   am
    29    13    14    1
    30    14    15    1
    31    15    16    1
    32    16    17   ar
    33    17    18   ar
    34    18    19   ar
    35    19    23    1
    36    23    24    1
    37    23    25    1
    38    23    26    1
    39    19    20   ar
    40    20    21   ar
    41    21    22    1
    42     9    10    1
    43    34    29    1
    44    10     1    1
    45     9     3    1
    46    22    13    1
    47    44    39   ar
    48    21    16   ar
    49    27    28    1
@<TRIPOS>MOLECULE
*****
 44 49 0 0 0
SMALL
GASTEIGER

@<TRIPOS>ATOM
      1 C         139.3279  142.6182  159.9593 C.3     1  UNL1        0.0546
      2 C         140.2127  143.5461  159.1807 C.3     1  UNL1        0.0180
      3 C         141.3287  142.7360  158.5905 C.3     1  UNL1        0.0310
      4 C         142.5652  142.8087  157.7445 C.3     1  UNL1        0.0939
      5 N         143.1343  141.4251  157.6354 N.am    1  UNL1       -0.2790
      6 C         144.3712  141.0375  156.8803 C.2     1  UNL1        0.2260
      7 O         144.8206  139.6066  156.8611 O.2     1  UNL1       -0.2749
      8 C         142.2495  140.4973  158.4140 C.3     1  UNL1        0.1020
      9 C         141.1336  141.3074  159.0043 C.3     1  UNL1        0.0902
     10 C         139.8971  141.2346  159.8502 C.3     1  UNL1        0.0261
     11 C         140.9385  139.8789  159.4180 C.2     1  UNL1        0.2267
     12 O         140.4902  138.8610  158.4115 O.2     1  UNL1       -0.2748
     13 N         141.1916  139.4682  160.8384 N.am    1  UNL1       -0.2750
     14 C         140.9965  138.0397  161.2522 C.3     1  UNL1        0.1000
     15 C         141.2496  137.6290  162.6725 C.3     1  UNL1        0.0670
     16 C         141.6978  138.6469  163.6790 C.ar    1  UNL1        0.0583
     17 N         141.9509  138.2362  165.0993 N.ar    1  UNL1       -0.2484
     18 C         142.3991  139.2541  166.1058 C.ar    1  UNL1        0.1023
     19 C         142.5943  140.6826  165.6920 C.ar    1  UNL1        0.0902
     20 C         142.3411  141.0933  164.2717 C.ar    1  UNL1        0.0040
     21 C         141.8929  140.0754  163.2652 C.ar    1  UNL1        0.0113
     22 C         141.6398  140.4860  161.8449 C.3     1  UNL1        0.1213
     23 C         143.0425  141.7005  166.6985 C.3     1  UNL1        0.4200
     24 F         143.4907  142.7184  167.7050 F       1  UNL1       -0.1658
     25 F         143.0053  140.6545  167.7729 F       1  UNL1       -0.1658
     26 F         143.0797  142.7466  165.6240 F       1  UNL1       -0.1658
     27 N         138.0911  143.0058  160.7144 N.3     1  UNL1       -0.2975
     28 H         137.8218  143.9320  160.3827 H       1  UNL1        0.1232
     29 C         138.3494  144.3857  162.9005 C.3     1  UNL1        0.1591
     30 C         138.3756  144.4530  164.3988 C.3     1  UNL1        0.1729
     31 O         138.1698  143.2077  165.2092 O.3     1  UNL1       -0.3511
     32 C         137.9377  141.8950  164.5213 C.3     1  UNL1        0.1437
     33 C         137.9115  141.8277  163.0231 C.3     1  UNL1        0.0503
     34 C         138.1173  143.0731  162.2127 C.3     1  UNL1        0.0865
     35 C         139.9390  146.1730  161.8862 C.3     1  UNL1        0.1742
     36 O         138.5553  145.6310  162.0901 O.3     1  UNL1       -0.3496
     37 C         145.1585  142.0809  156.1445 C.3     1  UNL1        0.0899
     38 C         146.5884  142.3413  156.5150 C.3     1  UNL1        0.0359
     39 C         147.6144  142.5547  155.4417 C.ar    1  UNL1       -0.0217
     40 C         148.8805  141.7504  155.4438 C.ar    1  UNL1       -0.0043
     41 C         149.9064  141.9638  154.3706 C.ar    1  UNL1       -0.0003
     42 C         149.6662  142.9816  153.2952 C.ar    1  UNL1       -0.0000
     43 C         148.4002  143.7859  153.2930 C.ar    1  UNL1       -0.0003
     44 C         147.3742  143.5725  154.3663 C.ar    1  UNL1       -0.0043
@<TRIPOS>BOND
     1    35    36    1
     2    36    29    1
     3    29    30    1
     4    30    31    1
     5    31    32    1
     6    32    33    1
     7    33    34    1
     8    34    27    1
     9     1    27    1
    10     1     2    1
    11     3     2    1
    12     3     4    1
    13     4     5    1
    14     5     6   am
    15     6     7    2
    16     6    37    1
    17    37    38    1
    18    38    39    1
    19    39    40   ar
    20    40    41   ar
    21    41    42   ar
    22    42    43   ar
    23    43    44   ar
    24     5     8    1
    25     8     9    1
    26     9    11    1
    27    11    12    2
    28    11    13   am
    29    13    14    1
    30    14    15    1
    31    15    16    1
    32    16    17   ar
    33    17    18   ar
    34    18    19   ar
    35    19    23    1
    36    23    24    1
    37    23    25    1
    38    23    26    1
    39    19    20   ar
    40    20    21   ar
    41    21    22    1
    42     9    10    1
    43    34    29    1
    44    10     1    1
    45     9     3    1
    46    22    13    1
    47    44    39   ar
    48    21    16   ar
    49    27    28    1
@<TRIPOS>MOLECULE
*****
 44 49 0 0 0
SMALL
GASTEIGER

@<TRIPOS>ATOM
      1 C         139.6381  139.8576  168.2563 C.3     1  UNL1        0.0546
      2 C         138.4374  139.3443  167.5183 C.3     1  UNL1        0.0180
      3 C         138.8738  138.9549  166.1370 C.3     1  UNL1        0.0310
      4 C         138.4014  138.3971  164.8272 C.3     1  UNL1        0.0939
      5 N         139.5800  138.3249  163.9020 N.am    1  UNL1       -0.2790
      6 C         139.5610  137.8269  162.4872 C.2     1  UNL1        0.2260
      7 O         140.8250  137.8141  161.6797 O.2     1  UNL1       -0.2749
      8 C         140.7807  138.8382  164.6401 C.3     1  UNL1        0.1020
      9 C         140.3443  139.2276  166.0214 C.3     1  UNL1        0.0902
     10 C         140.8167  139.7854  167.3312 C.3     1  UNL1        0.0261
     11 C         141.8148  139.5002  165.9058 C.2     1  UNL1        0.2267
     12 O         142.8021  138.5780  166.5574 O.2     1  UNL1       -0.2748
     13 N         142.2980  140.6952  165.1384 N.am    1  UNL1       -0.2750
     14 C         143.7684  140.9678  165.0228 C.3     1  UNL1        0.1000
     15 C         144.2515  142.1627  164.2555 C.3     1  UNL1        0.0670
     16 C         143.2642  143.0850  163.6039 C.ar    1  UNL1        0.0583
     17 N         143.7474  144.2799  162.8365 N.ar    1  UNL1       -0.2484
     18 C         142.7601  145.2021  162.1848 C.ar    1  UNL1        0.1023
     19 C         141.2896  144.9294  162.3005 C.ar    1  UNL1        0.0902
     20 C         140.8065  143.7345  163.0678 C.ar    1  UNL1        0.0040
     21 C         141.7938  142.8123  163.7195 C.ar    1  UNL1        0.0113
     22 C         141.3106  141.6174  164.4867 C.3     1  UNL1        0.1213
     23 C         140.3023  145.8517  161.6488 C.3     1  UNL1        0.4200
     24 F         139.3149  146.7739  160.9971 F       1  UNL1       -0.1658
     25 F         141.0988  145.8068  160.3785 F       1  UNL1       -0.1658
     26 F         139.5057  145.8966  162.9191 F       1  UNL1       -0.1658
     27 N         139.6571  140.3556  169.6712 N.3     1  UNL1       -0.2975
     28 H         138.6928  140.5790  169.9177 H       1  UNL1        0.1232
     29 C         141.7888  141.3725  170.7535 C.3     1  UNL1        0.1591
     30 C         142.6169  142.5694  171.1162 C.3     1  UNL1        0.1729
     31 O         142.1412  143.9465  170.7594 O.3     1  UNL1       -0.3511
     32 C         140.8375  144.1267  170.0398 C.3     1  UNL1        0.1437
     33 C         140.0094  142.9297  169.6770 C.3     1  UNL1        0.0503
     34 C         140.4851  141.5526  170.0339 C.3     1  UNL1        0.0865
     35 C         142.9146  139.1332  170.0691 C.3     1  UNL1        0.1742
     36 O         142.2645  139.9954  171.1103 O.3     1  UNL1       -0.3496
     37 C         138.2781  137.3418  161.8800 C.3     1  UNL1        0.0899
     38 C         137.2744  138.3279  161.3603 C.3     1  UNL1        0.0359
     39 C         137.7001  139.7277  161.0292 C.ar    1  UNL1       -0.0217
     40 C         137.5700  140.8138  162.0555 C.ar    1  UNL1       -0.0043
     41 C         137.9957  142.2134  161.7244 C.ar    1  UNL1       -0.0003
     42 C         138.5515  142.5269  160.3669 C.ar    1  UNL1       -0.0000
     43 C         138.6816  141.4408  159.3405 C.ar    1  UNL1       -0.0003
     44 C         138.2559  140.0412  159.6717 C.ar    1  UNL1       -0.0043
@<TRIPOS>BOND
     1    35    36    1
     2    36    29    1
     3    29    30    1
     4    30    31    1
     5    31    32    1
     6    32    33    1
     7    33    34    1
     8    34    27    1
     9     1    27    1
    10     1     2    1
    11     3     2    1
    12     3     4    1
    13     4     5    1
    14     5     6   am
    15     6     7    2
    16     6    37    1
    17    37    38    1
    18    38    39    1
    19    39    40   ar
    20    40    41   ar
    21    41    42   ar
    22    42    43   ar
    23    43    44   ar
    24     5     8    1
    25     8     9    1
    26     9    11    1
    27    11    12    2
    28    11    13   am
    29    13    14    1
    30    14    15    1
    31    15    16    1
    32    16    17   ar
    33    17    18   ar
    34    18    19   ar
    35    19    23    1
    36    23    24    1
    37    23    25    1
    38    23    26    1
    39    19    20   ar
    40    20    21   ar
    41    21    22    1
    42     9    10    1
    43    34    29    1
    44    10     1    1
    45     9     3    1
    46    22    13    1
    47    44    39   ar
    48    21    16   ar
    49    27    28    1
@<TRIPOS>MOLECULE
*****
 44 49 0 0 0
SMALL
GASTEIGER

@<TRIPOS>ATOM
      1 C         142.2940  138.3491  158.0749 C.3     1  UNL1        0.0546
      2 C         142.5754  137.6015  159.3445 C.3     1  UNL1        0.0180
      3 C         143.2376  138.5471  160.3022 C.3     1  UNL1        0.0310
      4 C         143.8208  138.6696  161.6788 C.3     1  UNL1        0.0939
      5 N         144.3090  140.0773  161.8519 N.am    1  UNL1       -0.2790
      6 C         144.9637  140.6388  163.0792 C.2     1  UNL1        0.2260
      7 O         145.4018  142.0732  163.1059 O.2     1  UNL1       -0.2749
      8 C         144.0276  140.8249  160.5823 C.3     1  UNL1        0.1020
      9 C         143.3654  139.8793  159.6245 C.3     1  UNL1        0.0902
     10 C         142.7823  139.7568  158.2480 C.3     1  UNL1        0.0261
     11 C         143.4933  141.2113  158.9469 C.2     1  UNL1        0.2267
     12 O         144.4359  141.3779  157.7921 O.2     1  UNL1       -0.2748
     13 N         142.6784  142.3768  159.4240 N.am    1  UNL1       -0.2750
     14 C         142.8062  143.7089  158.7463 C.3     1  UNL1        0.1000
     15 C         141.9913  144.8743  159.2235 C.3     1  UNL1        0.0670
     16 C         141.0486  144.7077  160.3783 C.ar    1  UNL1        0.0583
     17 N         140.2337  145.8732  160.8554 N.ar    1  UNL1       -0.2484
     18 C         139.2910  145.7066  162.0102 C.ar    1  UNL1        0.1023
     19 C         139.1632  144.3745  162.6879 C.ar    1  UNL1        0.0902
     20 C         139.9781  143.2090  162.2108 C.ar    1  UNL1        0.0040
     21 C         140.9208  143.3756  161.0559 C.ar    1  UNL1        0.0113
     22 C         141.7357  142.2102  160.5788 C.3     1  UNL1        0.1213
     23 C         138.2206  144.2079  163.8427 C.3     1  UNL1        0.4200
     24 F         137.2779  144.0413  164.9975 F       1  UNL1       -0.1658
     25 F         137.3740  143.2839  163.0184 F       1  UNL1       -0.1658
     26 F         139.0671  145.1319  164.6671 F       1  UNL1       -0.1658
     27 N         141.6393  137.7876  156.8476 N.3     1  UNL1       -0.2975
     28 H         140.6391  137.7420  157.0422 H       1  UNL1        0.1232
     29 C         141.0899  135.6395  155.4935 C.3     1  UNL1        0.1591
     30 C         141.4930  134.2892  154.9796 C.3     1  UNL1        0.1729
     31 O         142.8489  133.7367  155.3057 O.3     1  UNL1       -0.3511
     32 C         143.8016  134.5345  156.1459 C.3     1  UNL1        0.1437
     33 C         143.3984  135.8848  156.6599 C.3     1  UNL1        0.0503
     34 C         142.0425  136.4373  156.3337 C.3     1  UNL1        0.0865
     35 C         139.5288  136.9814  153.9085 C.3     1  UNL1        0.1742
     36 O         139.7340  136.1920  155.1673 O.3     1  UNL1       -0.3496
     37 C         145.1803  139.7659  164.2796 C.3     1  UNL1        0.0899
     38 C         144.0089  139.3181  165.1025 C.3     1  UNL1        0.0359
     39 C         142.8493  140.2438  165.3226 C.ar    1  UNL1       -0.0217
     40 C         143.0359  141.5050  166.1128 C.ar    1  UNL1       -0.0043
     41 C         141.8763  142.4307  166.3329 C.ar    1  UNL1       -0.0003
     42 C         140.5300  142.0951  165.7628 C.ar    1  UNL1       -0.0000
     43 C         140.3434  140.8338  164.9726 C.ar    1  UNL1       -0.0003
     44 C         141.5030  139.9082  164.7525 C.ar    1  UNL1       -0.0043
@<TRIPOS>BOND
     1    35    36    1
     2    36    29    1
     3    29    30    1
     4    30    31    1
     5    31    32    1
     6    32    33    1
     7    33    34    1
     8    34    27    1
     9     1    27    1
    10     1     2    1
    11     3     2    1
    12     3     4    1
    13     4     5    1
    14     5     6   am
    15     6     7    2
    16     6    37    1
    17    37    38    1
    18    38    39    1
    19    39    40   ar
    20    40    41   ar
    21    41    42   ar
    22    42    43   ar
    23    43    44   ar
    24     5     8    1
    25     8     9    1
    26     9    11    1
    27    11    12    2
    28    11    13   am
    29    13    14    1
    30    14    15    1
    31    15    16    1
    32    16    17   ar
    33    17    18   ar
    34    18    19   ar
    35    19    23    1
    36    23    24    1
    37    23    25    1
    38    23    26    1
    39    19    20   ar
    40    20    21   ar
    41    21    22    1
    42     9    10    1
    43    34    29    1
    44    10     1    1
    45     9     3    1
    46    22    13    1
    47    44    39   ar
    48    21    16   ar
    49    27    28    1
@<TRIPOS>MOLECULE
*****
 44 49 0 0 0
SMALL
GASTEIGER

@<TRIPOS>ATOM
      1 C         142.2820  143.3016  157.3246 C.3     1  UNL1        0.0546
      2 C         143.4781  142.4828  157.7106 C.3     1  UNL1        0.0180
      3 C         143.6719  142.6153  159.1921 C.3     1  UNL1        0.0310
      4 C         144.5309  142.1912  160.3463 C.3     1  UNL1        0.0939
      5 N         143.9856  142.8297  161.5893 N.am    1  UNL1       -0.2790
      6 C         144.5391  142.6763  162.9750 C.2     1  UNL1        0.2260
      7 O         143.8838  143.3797  164.1264 O.2     1  UNL1       -0.2749
      8 C         142.7895  143.6485  161.2032 C.3     1  UNL1        0.1020
      9 C         142.5957  143.5160  159.7217 C.3     1  UNL1        0.0902
     10 C         141.7367  143.9402  158.5675 C.3     1  UNL1        0.0261
     11 C         141.5194  144.4167  160.2513 C.2     1  UNL1        0.2267
     12 O         141.4303  145.8374  159.7782 O.2     1  UNL1       -0.2748
     13 N         140.5323  143.8967  161.2540 N.am    1  UNL1       -0.2750
     14 C         139.4561  144.7974  161.7836 C.3     1  UNL1        0.1000
     15 C         138.4691  144.2774  162.7862 C.3     1  UNL1        0.0670
     16 C         138.5583  142.8568  163.2593 C.ar    1  UNL1        0.0583
     17 N         137.5712  142.3368  164.2620 N.ar    1  UNL1       -0.2484
     18 C         137.6604  140.9162  164.7351 C.ar    1  UNL1        0.1023
     19 C         138.7367  140.0155  164.2055 C.ar    1  UNL1        0.0902
     20 C         139.7237  140.5355  163.2028 C.ar    1  UNL1        0.0040
     21 C         139.6345  141.9561  162.7297 C.ar    1  UNL1        0.0113
     22 C         140.6215  142.4761  161.7271 C.3     1  UNL1        0.1213
     23 C         138.8258  138.5949  164.6785 C.3     1  UNL1        0.4200
     24 F         138.9150  137.1742  165.1516 F       1  UNL1       -0.1658
     25 F         139.1487  139.0759  166.0622 F       1  UNL1       -0.1658
     26 F         138.5030  138.1138  163.2949 F       1  UNL1       -0.1658
     27 N         141.7285  143.4550  155.9389 N.3     1  UNL1       -0.2975
     28 H         142.5181  143.6632  155.3277 H       1  UNL1        0.1232
     29 C         139.2293  144.1114  155.6681 C.3     1  UNL1        0.1591
     30 C         138.1812  145.1476  155.3897 C.3     1  UNL1        0.1729
     31 O         138.5841  146.5639  155.1035 O.3     1  UNL1       -0.3511
     32 C         140.0352  146.9439  155.0958 C.3     1  UNL1        0.1437
     33 C         141.0833  145.9076  155.3743 C.3     1  UNL1        0.0503
     34 C         140.6803  144.4913  155.6604 C.3     1  UNL1        0.0865
     35 C         138.4360  142.2929  157.3457 C.3     1  UNL1        0.1742
     36 O         138.8264  142.6951  155.9543 O.3     1  UNL1       -0.3496
     37 C         145.7479  141.8196  163.2091 C.3     1  UNL1        0.0899
     38 C         145.6497  140.6083  164.0883 C.3     1  UNL1        0.0359
     39 C         144.4676  139.6921  163.9735 C.ar    1  UNL1       -0.0217
     40 C         144.0794  139.1326  162.6370 C.ar    1  UNL1       -0.0043
     41 C         142.8973  138.2164  162.5222 C.ar    1  UNL1       -0.0003
     42 C         142.1034  137.8597  163.7439 C.ar    1  UNL1       -0.0000
     43 C         142.4916  138.4191  165.0804 C.ar    1  UNL1       -0.0003
     44 C         143.6737  139.3353  165.1952 C.ar    1  UNL1       -0.0043
@<TRIPOS>BOND
     1    35    36    1
     2    36    29    1
     3    29    30    1
     4    30    31    1
     5    31    32    1
     6    32    33    1
     7    33    34    1
     8    34    27    1
     9     1    27    1
    10     1     2    1
    11     3     2    1
    12     3     4    1
    13     4     5    1
    14     5     6   am
    15     6     7    2
    16     6    37    1
    17    37    38    1
    18    38    39    1
    19    39    40   ar
    20    40    41   ar
    21    41    42   ar
    22    42    43   ar
    23    43    44   ar
    24     5     8    1
    25     8     9    1
    26     9    11    1
    27    11    12    2
    28    11    13   am
    29    13    14    1
    30    14    15    1
    31    15    16    1
    32    16    17   ar
    33    17    18   ar
    34    18    19   ar
    35    19    23    1
    36    23    24    1
    37    23    25    1
    38    23    26    1
    39    19    20   ar
    40    20    21   ar
    41    21    22    1
    42     9    10    1
    43    34    29    1
    44    10     1    1
    45     9     3    1
    46    22    13    1
    47    44    39   ar
    48    21    16   ar
    49    27    28    1
@<TRIPOS>MOLECULE
*****
 44 49 0 0 0
SMALL
GASTEIGER

@<TRIPOS>ATOM
      1 C         141.0015  140.0189  156.9607 C.3     1  UNL1        0.0546
      2 C         140.0652  141.1881  157.0389 C.3     1  UNL1        0.0180
      3 C         140.5344  142.0846  158.1462 C.3     1  UNL1        0.0310
      4 C         140.2458  143.3612  158.8789 C.3     1  UNL1        0.0939
      5 N         141.2938  143.5350  159.9379 N.am    1  UNL1       -0.2790
      6 C         141.3887  144.6776  160.9052 C.2     1  UNL1        0.2260
      7 O         142.4983  144.7160  161.9139 O.2     1  UNL1       -0.2749
      8 C         142.2302  142.3658  159.8597 C.3     1  UNL1        0.1020
      9 C         141.7609  141.4694  158.7524 C.3     1  UNL1        0.0902
     10 C         142.0496  140.1927  158.0197 C.3     1  UNL1        0.0261
     11 C         142.9873  140.8542  159.3585 C.2     1  UNL1        0.2267
     12 O         144.2794  140.8508  158.5967 O.2     1  UNL1       -0.2748
     13 N         142.9216  140.2424  160.7266 N.am    1  UNL1       -0.2750
     14 C         144.1480  139.6272  161.3327 C.3     1  UNL1        0.1000
     15 C         144.0823  139.0155  162.7007 C.3     1  UNL1        0.0670
     16 C         142.7902  139.0189  163.4625 C.ar    1  UNL1        0.0583
     17 N         142.7245  138.4071  164.8306 N.ar    1  UNL1       -0.2484
     18 C         141.4323  138.4106  165.5924 C.ar    1  UNL1        0.1023
     19 C         140.2059  139.0258  164.9862 C.ar    1  UNL1        0.0902
     20 C         140.2716  139.6375  163.6182 C.ar    1  UNL1        0.0040
     21 C         141.5638  139.6341  162.8564 C.ar    1  UNL1        0.0113
     22 C         141.6295  140.2459  161.4884 C.3     1  UNL1        0.1213
     23 C         138.9138  139.0292  165.7480 C.3     1  UNL1        0.4200
     24 F         137.6216  139.0327  166.5099 F       1  UNL1       -0.1658
     25 F         139.3564  140.2534  166.4933 F       1  UNL1       -0.1658
     26 F         138.4711  137.8051  165.0027 F       1  UNL1       -0.1658
     27 N         140.9066  138.8764  155.9933 N.3     1  UNL1       -0.2975
     28 H         140.0176  138.4103  156.1744 H       1  UNL1        0.1232
     29 C         143.2739  138.0571  155.3043 C.3     1  UNL1        0.1591
     30 C         144.3285  136.9905  155.2977 C.3     1  UNL1        0.1729
     31 O         144.0705  135.6764  155.9734 O.3     1  UNL1       -0.3511
     32 C         142.7578  135.4290  156.6557 C.3     1  UNL1        0.1437
     33 C         141.7031  136.4956  156.6624 C.3     1  UNL1        0.0503
     34 C         141.9612  137.8097  155.9867 C.3     1  UNL1        0.0865
     35 C         144.6295  140.2662  155.1233 C.3     1  UNL1        0.1742
     36 O         143.5319  139.3712  154.6287 O.3     1  UNL1       -0.3496
     37 C         140.3741  145.7815  160.8639 C.3     1  UNL1        0.0899
     38 C         139.4719  146.0152  162.0392 C.3     1  UNL1        0.0359
     39 C         139.0364  144.8604  162.8918 C.ar    1  UNL1       -0.0217
     40 C         139.5748  144.7110  164.2838 C.ar    1  UNL1       -0.0043
     41 C         139.1393  143.5562  165.1364 C.ar    1  UNL1       -0.0003
     42 C         138.1655  142.5509  164.5968 C.ar    1  UNL1       -0.0000
     43 C         137.6272  142.7004  163.2048 C.ar    1  UNL1       -0.0003
     44 C         138.0626  143.8551  162.3523 C.ar    1  UNL1       -0.0043
@<TRIPOS>BOND
     1    35    36    1
     2    36    29    1
     3    29    30    1
     4    30    31    1
     5    31    32    1
     6    32    33    1
     7    33    34    1
     8    34    27    1
     9     1    27    1
    10     1     2    1
    11     3     2    1
    12     3     4    1
    13     4     5    1
    14     5     6   am
    15     6     7    2
    16     6    37    1
    17    37    38    1
    18    38    39    1
    19    39    40   ar
    20    40    41   ar
    21    41    42   ar
    22    42    43   ar
    23    43    44   ar
    24     5     8    1
    25     8     9    1
    26     9    11    1
    27    11    12    2
    28    11    13   am
    29    13    14    1
    30    14    15    1
    31    15    16    1
    32    16    17   ar
    33    17    18   ar
    34    18    19   ar
    35    19    23    1
    36    23    24    1
    37    23    25    1
    38    23    26    1
    39    19    20   ar
    40    20    21   ar
    41    21    22    1
    42     9    10    1
    43    34    29    1
    44    10     1    1
    45     9     3    1
    46    22    13    1
    47    44    39   ar
    48    21    16   ar
    49    27    28    1
@<TRIPOS>MOLECULE
*****
 44 49 0 0 0
SMALL
GASTEIGER

@<TRIPOS>ATOM
      1 C         142.7006  143.7154  163.4927 C.3     1  UNL1        0.0546
      2 C         141.9451  144.9230  163.0227 C.3     1  UNL1        0.0180
      3 C         141.6695  144.7561  161.5577 C.3     1  UNL1        0.0310
      4 C         141.0322  145.3993  160.3618 C.3     1  UNL1        0.0939
      5 N         141.2235  144.4861  159.1873 N.am    1  UNL1       -0.2790
      6 C         140.7435  144.7365  157.7884 C.2     1  UNL1        0.2260
      7 O         141.0102  143.7266  156.7119 O.2     1  UNL1       -0.2749
      8 C         141.9790  143.2785  159.6574 C.3     1  UNL1        0.1020
      9 C         142.2546  143.4454  161.1223 C.3     1  UNL1        0.0902
     10 C         142.8919  142.8022  162.3182 C.3     1  UNL1        0.0261
     11 C         142.8397  142.1346  160.6870 C.2     1  UNL1        0.2267
     12 O         143.8869  142.1003  159.6135 O.2     1  UNL1       -0.2748
     13 N         142.3777  140.8581  161.3251 N.am    1  UNL1       -0.2750
     14 C         142.9628  139.5474  160.8897 C.3     1  UNL1        0.1000
     15 C         142.5008  138.2710  161.5279 C.3     1  UNL1        0.0670
     16 C         141.4537  138.3053  162.6013 C.ar    1  UNL1        0.0583
     17 N         140.9917  137.0287  163.2395 N.ar    1  UNL1       -0.2484
     18 C         139.9445  137.0630  164.3129 C.ar    1  UNL1        0.1023
     19 C         139.3594  138.3739  164.7483 C.ar    1  UNL1        0.0902
     20 C         139.8214  139.6503  164.1101 C.ar    1  UNL1        0.0040
     21 C         140.8686  139.6160  163.0367 C.ar    1  UNL1        0.0113
     22 C         141.3306  140.8924  162.3986 C.3     1  UNL1        0.1213
     23 C         138.3123  138.4082  165.8217 C.3     1  UNL1        0.4200
     24 F         137.2651  138.4425  166.8952 F       1  UNL1       -0.1658
     25 F         138.3435  136.9105  165.9000 F       1  UNL1       -0.1658
     26 F         138.2811  139.9058  165.7434 F       1  UNL1       -0.1658
     27 N         143.1806  143.4650  164.8917 N.3     1  UNL1       -0.2975
     28 H         144.1914  143.3394  164.8381 H       1  UNL1        0.1232
     29 C         143.3199  140.9688  165.5983 C.3     1  UNL1        0.1591
     30 C         142.7801  139.8078  166.3799 C.3     1  UNL1        0.1729
     31 O         141.5611  139.9822  167.2364 O.3     1  UNL1       -0.3511
     32 C         140.8819  141.3176  167.3114 C.3     1  UNL1        0.1437
     33 C         141.4217  142.4785  166.5298 C.3     1  UNL1        0.0503
     34 C         142.6408  142.3041  165.6733 C.3     1  UNL1        0.0865
     35 C         144.8396  139.4590  164.1282 C.3     1  UNL1        0.1742
     36 O         144.5388  140.7944  164.7418 O.3     1  UNL1       -0.3496
     37 C         139.9968  145.9968  157.4660 C.3     1  UNL1        0.0899
     38 C         139.3596  146.1673  156.1188 C.3     1  UNL1        0.0359
     39 C         139.4386  147.4888  155.4136 C.ar    1  UNL1       -0.0217
     40 C         140.1899  147.6052  154.1205 C.ar    1  UNL1       -0.0043
     41 C         140.2688  148.9267  153.4154 C.ar    1  UNL1       -0.0003
     42 C         139.5965  150.1319  154.0032 C.ar    1  UNL1       -0.0000
     43 C         138.8452  150.0155  155.2963 C.ar    1  UNL1       -0.0003
     44 C         138.7663  148.6940  156.0015 C.ar    1  UNL1       -0.0043
@<TRIPOS>BOND
     1    35    36    1
     2    36    29    1
     3    29    30    1
     4    30    31    1
     5    31    32    1
     6    32    33    1
     7    33    34    1
     8    34    27    1
     9     1    27    1
    10     1     2    1
    11     3     2    1
    12     3     4    1
    13     4     5    1
    14     5     6   am
    15     6     7    2
    16     6    37    1
    17    37    38    1
    18    38    39    1
    19    39    40   ar
    20    40    41   ar
    21    41    42   ar
    22    42    43   ar
    23    43    44   ar
    24     5     8    1
    25     8     9    1
    26     9    11    1
    27    11    12    2
    28    11    13   am
    29    13    14    1
    30    14    15    1
    31    15    16    1
    32    16    17   ar
    33    17    18   ar
    34    18    19   ar
    35    19    23    1
    36    23    24    1
    37    23    25    1
    38    23    26    1
    39    19    20   ar
    40    20    21   ar
    41    21    22    1
    42     9    10    1
    43    34    29    1
    44    10     1    1
    45     9     3    1
    46    22    13    1
    47    44    39   ar
    48    21    16   ar
    49    27    28    1
@<TRIPOS>MOLECULE
*****
 44 49 0 0 0
SMALL
GASTEIGER

@<TRIPOS>ATOM
      1 C         138.4027  140.0502  159.7256 C.3     1  UNL1        0.0546
      2 C         138.1536  141.1682  158.7572 C.3     1  UNL1        0.0180
      3 C         139.3882  141.3427  157.9232 C.3     1  UNL1        0.0310
      4 C         139.9972  142.1415  156.8092 C.3     1  UNL1        0.0939
      5 N         141.3857  141.6250  156.5738 N.am    1  UNL1       -0.2790
      6 C         142.3550  142.1368  155.5497 C.2     1  UNL1        0.2260
      7 O         143.7160  141.5178  155.4300 O.2     1  UNL1       -0.2749
      8 C         141.6348  140.5070  157.5423 C.3     1  UNL1        0.1020
      9 C         140.4003  140.3325  158.3763 C.3     1  UNL1        0.0902
     10 C         139.7912  139.5337  159.4902 C.3     1  UNL1        0.0261
     11 C         141.4123  139.3223  158.8293 C.2     1  UNL1        0.2267
     12 O         141.4703  137.9736  158.1755 O.2     1  UNL1       -0.2748
     13 N         142.3663  139.6609  159.9363 N.am    1  UNL1       -0.2750
     14 C         143.3783  138.6507  160.3894 C.3     1  UNL1        0.1000
     15 C         144.3322  138.9893  161.4963 C.3     1  UNL1        0.0670
     16 C         144.2742  140.3380  162.1501 C.ar    1  UNL1        0.0583
     17 N         145.2282  140.6766  163.2571 N.ar    1  UNL1       -0.2484
     18 C         145.1701  142.0253  163.9110 C.ar    1  UNL1        0.1023
     19 C         144.1581  143.0355  163.4578 C.ar    1  UNL1        0.0902
     20 C         143.2041  142.6970  162.3509 C.ar    1  UNL1        0.0040
     21 C         143.2622  141.3482  161.6971 C.ar    1  UNL1        0.0113
     22 C         142.3082  141.0096  160.5902 C.3     1  UNL1        0.1213
     23 C         144.1000  144.3843  164.1117 C.3     1  UNL1        0.4200
     24 F         144.0419  145.7330  164.7655 F       1  UNL1       -0.1658
     25 F         144.6600  143.7968  165.3731 F       1  UNL1       -0.1658
     26 F         143.5400  144.9717  162.8502 F       1  UNL1       -0.1658
     27 N         137.4335  139.5385  160.7498 N.3     1  UNL1       -0.2975
     28 H         136.6560  140.1983  160.7750 H       1  UNL1        0.1232
     29 C         137.7248  140.4478  163.1660 C.3     1  UNL1        0.1591
     30 C         138.1689  140.2475  164.5846 C.3     1  UNL1        0.1729
     31 O         138.7657  138.9374  165.0058 O.3     1  UNL1       -0.3511
     32 C         138.9185  137.8276  164.0082 C.3     1  UNL1        0.1437
     33 C         138.4744  138.0279  162.5896 C.3     1  UNL1        0.0503
     34 C         137.8776  139.3381  162.1684 C.3     1  UNL1        0.0865
     35 C         138.0195  142.8819  162.3065 C.3     1  UNL1        0.1742
     36 O         137.1280  141.7579  162.7448 O.3     1  UNL1       -0.3496
     37 C         141.9631  143.2675  154.6453 C.3     1  UNL1        0.0899
     38 C         142.3218  144.6777  155.0092 C.3     1  UNL1        0.0359
     39 C         141.2413  145.6667  155.3331 C.ar    1  UNL1       -0.0217
     40 C         140.7219  146.5857  154.2675 C.ar    1  UNL1       -0.0043
     41 C         139.6416  147.5746  154.5914 C.ar    1  UNL1       -0.0003
     42 C         139.0806  147.6444  155.9808 C.ar    1  UNL1       -0.0000
     43 C         139.6001  146.7253  157.0463 C.ar    1  UNL1       -0.0003
     44 C         140.6804  145.7365  156.7225 C.ar    1  UNL1       -0.0043
@<TRIPOS>BOND
     1    35    36    1
     2    36    29    1
     3    29    30    1
     4    30    31    1
     5    31    32    1
     6    32    33    1
     7    33    34    1
     8    34    27    1
     9     1    27    1
    10     1     2    1
    11     3     2    1
    12     3     4    1
    13     4     5    1
    14     5     6   am
    15     6     7    2
    16     6    37    1
    17    37    38    1
    18    38    39    1
    19    39    40   ar
    20    40    41   ar
    21    41    42   ar
    22    42    43   ar
    23    43    44   ar
    24     5     8    1
    25     8     9    1
    26     9    11    1
    27    11    12    2
    28    11    13   am
    29    13    14    1
    30    14    15    1
    31    15    16    1
    32    16    17   ar
    33    17    18   ar
    34    18    19   ar
    35    19    23    1
    36    23    24    1
    37    23    25    1
    38    23    26    1
    39    19    20   ar
    40    20    21   ar
    41    21    22    1
    42     9    10    1
    43    34    29    1
    44    10     1    1
    45     9     3    1
    46    22    13    1
    47    44    39   ar
    48    21    16   ar
    49    27    28    1
