@<TRIPOS>MOLECULE
*****
 34 37 0 0 0
SMALL
GASTEIGER

@<TRIPOS>ATOM
      1 C         139.4315  138.6333  162.8489 C.ar    1  UNL1        0.0505
      2 C         139.6922  137.5743  163.8787 C.ar    1  UNL1        0.0148
      3 C         139.5025  137.8811  165.3346 C.ar    1  UNL1        0.0060
      4 C         139.0521  139.2469  165.7608 C.ar    1  UNL1        0.0553
      5 C         138.7913  140.3059  164.7311 C.ar    1  UNL1        0.0060
      6 C         138.9810  139.9991  163.2751 C.ar    1  UNL1        0.0148
      7 C         138.8624  139.5537  167.2169 C.ar    1  UNL1        0.2512
      8 N         137.8961  138.8754  168.1422 N.ar    1  UNL1       -0.1058
      9 N         138.0422  139.4951  169.5004 N.ar    1  UNL1       -0.0923
     10 C         139.0987  140.5565  169.4144 C.ar    1  UNL1        0.3086
     11 O         139.6056  140.5927  168.0031 O.2     1  UNL1       -0.4048
     12 N         139.5662  141.4285  170.5418 N.pl3   1  UNL1       -0.2871
     13 H         138.9988  142.1670  170.8608 H       1  UNL1        0.1512
     14 C         140.8983  141.1752  171.1832 C.3     1  UNL1        0.0925
     15 C         142.1597  141.5669  170.4721 C.3     1  UNL1        0.0386
     16 C         142.9283  140.5436  169.6898 C.3     1  UNL1        0.0738
     17 N         142.8478  140.5287  168.1921 N.3     1  UNL1       -0.2726
     18 C         142.8559  139.2232  167.4534 C.3     1  UNL1        0.0721
     19 C         142.7753  139.2084  165.9557 C.3     1  UNL1        0.0174
     20 C         142.6866  140.4990  165.1966 C.3     1  UNL1        0.0029
     21 C         142.6785  141.8045  165.9352 C.3     1  UNL1        0.0174
     22 C         142.7590  141.8194  167.4330 C.3     1  UNL1        0.0721
     23 O         141.7682  139.7892  161.3644 O.2     1  UNL1       -0.2697
     24 C         140.7895  138.9045  160.6507 C.2     1  UNL1        0.2539
     25 N         139.6212  138.3265  161.3929 N.am    1  UNL1       -0.2803
     26 H         138.9788  137.7458  160.9244 H       1  UNL1        0.1552
     27 C         140.9792  138.5977  159.1946 C.ar    1  UNL1        0.1084
     28 C         139.8907  138.9164  158.2130 C.ar    1  UNL1        0.1467
     29 F         138.6125  139.5419  158.6873 F       1  UNL1       -0.2039
     30 C         140.0805  138.6096  156.7571 C.ar    1  UNL1        0.0299
     31 C         141.3586  137.9841  156.2827 C.ar    1  UNL1        0.0046
     32 C         142.4471  137.6654  157.2643 C.ar    1  UNL1        0.0299
     33 C         142.2574  137.9722  158.7203 C.ar    1  UNL1        0.1467
     34 F         143.3459  137.6535  159.7020 F       1  UNL1       -0.2039
@<TRIPOS>BOND
     1    23    24    2
     2    24    25   am
     3    25     1    1
     4     1     2   ar
     5     2     3   ar
     6     3     4   ar
     7     4     7    1
     8     7     8   ar
     9     8     9   ar
    10     9    10   ar
    11    10    12    1
    12    12    14    1
    13    14    15    1
    14    15    16    1
    15    16    17    1
    16    17    18    1
    17    18    19    1
    18    19    20    1
    19    20    21    1
    20    21    22    1
    21    10    11   ar
    22     4     5   ar
    23     5     6   ar
    24    24    27    1
    25    27    28   ar
    26    28    29    1
    27    28    30   ar
    28    30    31   ar
    29    31    32   ar
    30    32    33   ar
    31    33    34    1
    32     6     1   ar
    33    33    27   ar
    34    11     7   ar
    35    22    17    1
    36    25    26    1
    37    12    13    1
@<TRIPOS>MOLECULE
*****
 34 37 0 0 0
SMALL
GASTEIGER

@<TRIPOS>ATOM
      1 C         139.3484  138.3741  161.9979 C.ar    1  UNL1        0.0505
      2 C         140.1718  137.6296  163.0067 C.ar    1  UNL1        0.0148
      3 C         140.0289  137.9396  164.4673 C.ar    1  UNL1        0.0060
      4 C         139.0624  138.9940  164.9192 C.ar    1  UNL1        0.0553
      5 C         138.2390  139.7385  163.9104 C.ar    1  UNL1        0.0060
      6 C         138.3819  139.4285  162.4498 C.ar    1  UNL1        0.0148
      7 C         138.9195  139.3039  166.3799 C.ar    1  UNL1        0.2512
      8 N         137.9325  138.6796  167.3212 N.ar    1  UNL1       -0.1058
      9 N         138.1414  139.2823  168.6787 N.ar    1  UNL1       -0.0923
     10 C         139.2576  140.2792  168.5765 C.ar    1  UNL1        0.3086
     11 O         139.7385  140.2925  167.1557 O.2     1  UNL1       -0.4048
     12 N         139.7980  141.1159  169.6981 N.pl3   1  UNL1       -0.2871
     13 H         139.6911  142.0943  169.6780 H       1  UNL1        0.1512
     14 C         140.5014  140.4617  170.8501 C.3     1  UNL1        0.0925
     15 C         141.9976  140.5145  170.9432 C.3     1  UNL1        0.0386
     16 C         142.7841  141.3039  169.9390 C.3     1  UNL1        0.0738
     17 N         142.8291  140.8618  168.5064 N.3     1  UNL1       -0.2726
     18 C         142.8515  141.8820  167.4070 C.3     1  UNL1        0.0721
     19 C         142.8965  141.4399  165.9744 C.3     1  UNL1        0.0174
     20 C         142.9191  139.9776  165.6411 C.3     1  UNL1        0.0029
     21 C         142.8967  138.9574  166.7405 C.3     1  UNL1        0.0174
     22 C         142.8517  139.3995  168.1731 C.3     1  UNL1        0.0721
     23 O         141.4359  139.7784  160.3638 O.2     1  UNL1       -0.2697
     24 C         140.5351  138.7663  159.7202 C.2     1  UNL1        0.2539
     25 N         139.4913  138.0642  160.5372 N.am    1  UNL1       -0.2803
     26 H         138.9001  137.3999  160.1148 H       1  UNL1        0.1552
     27 C         140.6780  138.4564  158.2595 C.ar    1  UNL1        0.1084
     28 C         141.8383  137.6376  157.7765 C.ar    1  UNL1        0.1467
     29 F         142.8557  137.1288  158.7542 F       1  UNL1       -0.2039
     30 C         141.9812  137.3278  156.3159 C.ar    1  UNL1        0.0299
     31 C         140.9638  137.8366  155.3382 C.ar    1  UNL1        0.0046
     32 C         139.8034  138.6553  155.8211 C.ar    1  UNL1        0.0299
     33 C         139.6606  138.9652  157.2818 C.ar    1  UNL1        0.1467
     34 F         138.5002  139.7840  157.7648 F       1  UNL1       -0.2039
@<TRIPOS>BOND
     1    23    24    2
     2    24    25   am
     3    25     1    1
     4     1     2   ar
     5     2     3   ar
     6     3     4   ar
     7     4     7    1
     8     7     8   ar
     9     8     9   ar
    10     9    10   ar
    11    10    12    1
    12    12    14    1
    13    14    15    1
    14    15    16    1
    15    16    17    1
    16    17    18    1
    17    18    19    1
    18    19    20    1
    19    20    21    1
    20    21    22    1
    21    10    11   ar
    22     4     5   ar
    23     5     6   ar
    24    24    27    1
    25    27    28   ar
    26    28    29    1
    27    28    30   ar
    28    30    31   ar
    29    31    32   ar
    30    32    33   ar
    31    33    34    1
    32     6     1   ar
    33    33    27   ar
    34    11     7   ar
    35    22    17    1
    36    25    26    1
    37    12    13    1
@<TRIPOS>MOLECULE
*****
 34 37 0 0 0
SMALL
GASTEIGER

@<TRIPOS>ATOM
      1 C         140.4925  143.1405  164.5154 C.ar    1  UNL1        0.0505
      2 C         140.3892  142.2570  163.3076 C.ar    1  UNL1        0.0148
      3 C         140.5608  142.8389  161.9358 C.ar    1  UNL1        0.0060
      4 C         140.8357  144.3043  161.7718 C.ar    1  UNL1        0.0553
      5 C         140.9391  145.1879  162.9795 C.ar    1  UNL1        0.0060
      6 C         140.7675  144.6060  164.3513 C.ar    1  UNL1        0.0148
      7 C         141.0073  144.8862  160.3998 C.ar    1  UNL1        0.2512
      8 N         142.2522  144.8243  159.5653 N.ar    1  UNL1       -0.1058
      9 N         141.9785  145.5319  158.2713 N.ar    1  UNL1       -0.0923
     10 C         140.5644  146.0312  158.3062 C.ar    1  UNL1        0.3086
     11 O         139.9642  145.6321  159.6217 O.2     1  UNL1       -0.4048
     12 N         139.8721  146.7954  157.2169 N.pl3   1  UNL1       -0.2871
     13 H         139.3946  147.6301  157.4280 H       1  UNL1        0.1512
     14 C         139.9073  146.2880  155.8058 C.3     1  UNL1        0.0925
     15 C         139.2899  147.0955  154.7027 C.3     1  UNL1        0.0386
     16 C         140.0900  148.1626  154.0162 C.3     1  UNL1        0.0738
     17 N         139.5953  149.5785  154.0020 N.3     1  UNL1       -0.2726
     18 C         139.0402  150.1918  155.2533 C.3     1  UNL1        0.0721
     19 C         138.5455  151.6077  155.2390 C.3     1  UNL1        0.0174
     20 C         138.6059  152.4106  153.9734 C.3     1  UNL1        0.0029
     21 C         139.1611  151.7974  152.7221 C.3     1  UNL1        0.0174
     22 C         139.6558  150.3814  152.7364 C.3     1  UNL1        0.0721
     23 O         142.8985  142.5654  166.2126 O.2     1  UNL1       -0.2697
     24 C         141.5239  142.2711  166.7358 C.2     1  UNL1        0.2539
     25 N         140.3209  142.5587  165.8873 N.am    1  UNL1       -0.2803
     26 H         139.4187  142.3655  166.2307 H       1  UNL1        0.1552
     27 C         141.3523  141.6892  168.1077 C.ar    1  UNL1        0.1084
     28 C         140.6353  142.4697  169.1692 C.ar    1  UNL1        0.1467
     29 F         140.0899  143.8321  168.8588 F       1  UNL1       -0.2039
     30 C         140.4637  141.8878  170.5410 C.ar    1  UNL1        0.0299
     31 C         141.0092  140.5254  170.8514 C.ar    1  UNL1        0.0046
     32 C         141.7261  139.7449  169.7899 C.ar    1  UNL1        0.0299
     33 C         141.8977  140.3268  168.4181 C.ar    1  UNL1        0.1467
     34 F         142.6147  139.5463  167.3566 F       1  UNL1       -0.2039
@<TRIPOS>BOND
     1    23    24    2
     2    24    25   am
     3    25     1    1
     4     1     2   ar
     5     2     3   ar
     6     3     4   ar
     7     4     7    1
     8     7     8   ar
     9     8     9   ar
    10     9    10   ar
    11    10    12    1
    12    12    14    1
    13    14    15    1
    14    15    16    1
    15    16    17    1
    16    17    18    1
    17    18    19    1
    18    19    20    1
    19    20    21    1
    20    21    22    1
    21    10    11   ar
    22     4     5   ar
    23     5     6   ar
    24    24    27    1
    25    27    28   ar
    26    28    29    1
    27    28    30   ar
    28    30    31   ar
    29    31    32   ar
    30    32    33   ar
    31    33    34    1
    32     6     1   ar
    33    33    27   ar
    34    11     7   ar
    35    22    17    1
    36    25    26    1
    37    12    13    1
@<TRIPOS>MOLECULE
*****
 34 37 0 0 0
SMALL
GASTEIGER

@<TRIPOS>ATOM
      1 C         142.2002  138.5134  163.0219 C.ar    1  UNL1        0.0505
      2 C         141.0834  138.5194  162.0207 C.ar    1  UNL1        0.0148
      3 C         141.3913  138.4719  160.5534 C.ar    1  UNL1        0.0060
      4 C         142.8160  138.4185  160.0874 C.ar    1  UNL1        0.0553
      5 C         143.9329  138.4125  161.0886 C.ar    1  UNL1        0.0060
      6 C         143.6250  138.4600  162.5559 C.ar    1  UNL1        0.0148
      7 C         143.1239  138.3710  158.6200 C.ar    1  UNL1        0.2512
      8 N         143.6917  139.4925  157.8016 N.ar    1  UNL1       -0.1058
      9 N         143.8368  139.0084  156.3893 N.ar    1  UNL1       -0.0923
     10 C         143.3586  137.5876  156.3349 C.ar    1  UNL1        0.3086
     11 O         142.9180  137.1938  157.7136 O.2     1  UNL1       -0.4048
     12 N         143.3266  136.7142  155.1159 N.pl3   1  UNL1       -0.2871
     13 H         144.1585  136.5227  154.6255 H       1  UNL1        0.1512
     14 C         142.0270  136.1324  154.6440 C.3     1  UNL1        0.0925
     15 C         141.9593  134.6958  154.2176 C.3     1  UNL1        0.0386
     16 C         141.7767  133.6168  155.2434 C.3     1  UNL1        0.0738
     17 N         142.9622  133.0880  155.9949 N.3     1  UNL1       -0.2726
     18 C         143.3679  133.7172  157.2947 C.3     1  UNL1        0.0721
     19 C         144.5534  133.1884  158.0462 C.3     1  UNL1        0.0174
     20 C         145.3333  132.0304  157.4979 C.3     1  UNL1        0.0029
     21 C         144.9277  131.4012  156.1981 C.3     1  UNL1        0.0174
     22 C         143.7421  131.9300  155.4466 C.3     1  UNL1        0.0721
     23 O         141.8708  141.1574  164.4008 O.2     1  UNL1       -0.2697
     24 C         141.7277  139.8828  165.1786 C.2     1  UNL1        0.2539
     25 N         141.8924  138.5609  164.4893 N.am    1  UNL1       -0.2803
     26 H         141.7984  137.7244  164.9998 H       1  UNL1        0.1552
     27 C         141.4198  139.9303  166.6460 C.ar    1  UNL1        0.1084
     28 C         142.3935  139.3620  167.6354 C.ar    1  UNL1        0.1467
     29 F         143.6751  138.7463  167.1575 F       1  UNL1       -0.2039
     30 C         142.0856  139.4095  169.1026 C.ar    1  UNL1        0.0299
     31 C         140.8040  140.0253  169.5805 C.ar    1  UNL1        0.0046
     32 C         139.8303  140.5936  168.5911 C.ar    1  UNL1        0.0299
     33 C         140.1382  140.5461  167.1239 C.ar    1  UNL1        0.1467
     34 F         139.1645  141.1144  166.1344 F       1  UNL1       -0.2039
@<TRIPOS>BOND
     1    23    24    2
     2    24    25   am
     3    25     1    1
     4     1     2   ar
     5     2     3   ar
     6     3     4   ar
     7     4     7    1
     8     7     8   ar
     9     8     9   ar
    10     9    10   ar
    11    10    12    1
    12    12    14    1
    13    14    15    1
    14    15    16    1
    15    16    17    1
    16    17    18    1
    17    18    19    1
    18    19    20    1
    19    20    21    1
    20    21    22    1
    21    10    11   ar
    22     4     5   ar
    23     5     6   ar
    24    24    27    1
    25    27    28   ar
    26    28    29    1
    27    28    30   ar
    28    30    31   ar
    29    31    32   ar
    30    32    33   ar
    31    33    34    1
    32     6     1   ar
    33    33    27   ar
    34    11     7   ar
    35    22    17    1
    36    25    26    1
    37    12    13    1
@<TRIPOS>MOLECULE
*****
 34 37 0 0 0
SMALL
GASTEIGER

@<TRIPOS>ATOM
      1 C         142.2455  138.5659  163.2881 C.ar    1  UNL1        0.0505
      2 C         143.6411  138.7598  162.7737 C.ar    1  UNL1        0.0148
      3 C         143.8996  138.7813  161.2963 C.ar    1  UNL1        0.0060
      4 C         142.7625  138.6090  160.3334 C.ar    1  UNL1        0.0553
      5 C         141.3669  138.4151  160.8478 C.ar    1  UNL1        0.0060
      6 C         141.1084  138.3935  162.3252 C.ar    1  UNL1        0.0148
      7 C         143.0210  138.6305  158.8559 C.ar    1  UNL1        0.2512
      8 N         143.9815  139.5349  158.1420 N.ar    1  UNL1       -0.1058
      9 N         143.9186  139.2148  156.6779 N.ar    1  UNL1       -0.0923
     10 C         142.9192  138.1126  156.4870 C.ar    1  UNL1        0.3086
     11 O         142.3645  137.7515  157.8330 O.2     1  UNL1       -0.4048
     12 N         142.5410  137.4822  155.1795 N.pl3   1  UNL1       -0.2871
     13 H         142.0706  138.0116  154.4956 H       1  UNL1        0.1512
     14 C         142.8795  136.0452  154.9140 C.3     1  UNL1        0.0925
     15 C         143.8268  135.3178  155.8215 C.3     1  UNL1        0.0386
     16 C         143.2986  134.5483  156.9957 C.3     1  UNL1        0.0738
     17 N         143.6147  133.0891  157.1397 N.3     1  UNL1       -0.2726
     18 C         144.8356  132.6573  157.8968 C.3     1  UNL1        0.0721
     19 C         145.1517  131.1982  158.0408 C.3     1  UNL1        0.0174
     20 C         144.2471  130.1707  157.4278 C.3     1  UNL1        0.0029
     21 C         143.0262  130.6024  156.6707 C.3     1  UNL1        0.0174
     22 C         142.7101  132.0616  156.5267 C.3     1  UNL1        0.0721
     23 O         141.9113  141.1412  164.7902 O.2     1  UNL1       -0.2697
     24 C         141.8199  139.8319  165.5166 C.2     1  UNL1        0.2539
     25 N         141.9870  138.5443  164.7656 N.am    1  UNL1       -0.2803
     26 H         141.9270  137.6850  165.2423 H       1  UNL1        0.1552
     27 C         141.5613  139.8104  166.9940 C.ar    1  UNL1        0.1084
     28 C         140.3014  140.4106  167.5438 C.ar    1  UNL1        0.1467
     29 F         139.3000  141.0324  166.6162 F       1  UNL1       -0.2039
     30 C         140.0429  140.3890  169.0211 C.ar    1  UNL1        0.0299
     31 C         141.0444  139.7672  169.9488 C.ar    1  UNL1        0.0046
     32 C         142.3043  139.1670  169.3990 C.ar    1  UNL1        0.0299
     33 C         142.5628  139.1886  167.9217 C.ar    1  UNL1        0.1467
     34 F         143.8228  138.5884  167.3718 F       1  UNL1       -0.2039
@<TRIPOS>BOND
     1    23    24    2
     2    24    25   am
     3    25     1    1
     4     1     2   ar
     5     2     3   ar
     6     3     4   ar
     7     4     7    1
     8     7     8   ar
     9     8     9   ar
    10     9    10   ar
    11    10    12    1
    12    12    14    1
    13    14    15    1
    14    15    16    1
    15    16    17    1
    16    17    18    1
    17    18    19    1
    18    19    20    1
    19    20    21    1
    20    21    22    1
    21    10    11   ar
    22     4     5   ar
    23     5     6   ar
    24    24    27    1
    25    27    28   ar
    26    28    29    1
    27    28    30   ar
    28    30    31   ar
    29    31    32   ar
    30    32    33   ar
    31    33    34    1
    32     6     1   ar
    33    33    27   ar
    34    11     7   ar
    35    22    17    1
    36    25    26    1
    37    12    13    1
@<TRIPOS>MOLECULE
*****
 34 37 0 0 0
SMALL
GASTEIGER

@<TRIPOS>ATOM
      1 C         142.6100  137.9146  158.1932 C.ar    1  UNL1        0.0505
      2 C         142.9697  137.5779  159.6100 C.ar    1  UNL1        0.0148
      3 C         143.4395  138.6561  160.5410 C.ar    1  UNL1        0.0060
      4 C         143.5496  140.0709  160.0552 C.ar    1  UNL1        0.0553
      5 C         143.1899  140.4076  158.6384 C.ar    1  UNL1        0.0060
      6 C         142.7201  139.3294  157.7074 C.ar    1  UNL1        0.0148
      7 C         144.0194  141.1492  160.9862 C.ar    1  UNL1        0.2512
      8 N         145.0167  140.9842  162.0945 N.ar    1  UNL1       -0.1058
      9 N         145.1882  142.3146  162.7657 N.ar    1  UNL1       -0.0923
     10 C         144.2968  143.3019  162.0722 C.ar    1  UNL1        0.3086
     11 O         143.5745  142.5816  160.9724 O.2     1  UNL1       -0.4048
     12 N         144.1529  144.7544  162.4178 N.pl3   1  UNL1       -0.2871
     13 H         144.4287  145.4439  161.7714 H       1  UNL1        0.1512
     14 C         143.5889  145.1565  163.7483 C.3     1  UNL1        0.0925
     15 C         142.1327  145.4932  163.8747 C.3     1  UNL1        0.0386
     16 C         141.1809  145.1319  162.7731 C.3     1  UNL1        0.0738
     17 N         139.9544  144.3236  163.0767 N.3     1  UNL1       -0.2726
     18 C         139.6057  143.1403  162.2232 C.3     1  UNL1        0.0721
     19 C         138.3792  142.3320  162.5268 C.3     1  UNL1        0.0174
     20 C         137.5013  142.7068  163.6839 C.3     1  UNL1        0.0029
     21 C         137.8500  143.8900  164.5373 C.3     1  UNL1        0.0174
     22 C         139.0766  144.6984  164.2338 C.3     1  UNL1        0.0721
     23 O         144.4130  136.9298  156.0070 O.2     1  UNL1       -0.2697
     24 C         143.0416  136.3440  156.1691 C.2     1  UNL1        0.2539
     25 N         142.1402  136.8363  157.2622 N.am    1  UNL1       -0.2803
     26 H         141.2401  136.4518  157.3686 H       1  UNL1        0.1552
     27 C         142.5718  135.2658  155.2381 C.ar    1  UNL1        0.1084
     28 C         142.2746  135.5901  153.8041 C.ar    1  UNL1        0.1467
     29 F         142.4472  136.9927  153.3010 F       1  UNL1       -0.2039
     30 C         141.8048  134.5119  152.8731 C.ar    1  UNL1        0.0299
     31 C         141.6322  133.1094  153.3762 C.ar    1  UNL1        0.0046
     32 C         141.9294  132.7850  154.8101 C.ar    1  UNL1        0.0299
     33 C         142.3992  133.8632  155.7411 C.ar    1  UNL1        0.1467
     34 F         142.6965  133.5389  157.1752 F       1  UNL1       -0.2039
@<TRIPOS>BOND
     1    23    24    2
     2    24    25   am
     3    25     1    1
     4     1     2   ar
     5     2     3   ar
     6     3     4   ar
     7     4     7    1
     8     7     8   ar
     9     8     9   ar
    10     9    10   ar
    11    10    12    1
    12    12    14    1
    13    14    15    1
    14    15    16    1
    15    16    17    1
    16    17    18    1
    17    18    19    1
    18    19    20    1
    19    20    21    1
    20    21    22    1
    21    10    11   ar
    22     4     5   ar
    23     5     6   ar
    24    24    27    1
    25    27    28   ar
    26    28    29    1
    27    28    30   ar
    28    30    31   ar
    29    31    32   ar
    30    32    33   ar
    31    33    34    1
    32     6     1   ar
    33    33    27   ar
    34    11     7   ar
    35    22    17    1
    36    25    26    1
    37    12    13    1
@<TRIPOS>MOLECULE
*****
 34 37 0 0 0
SMALL
GASTEIGER

@<TRIPOS>ATOM
      1 C         143.0245  138.9060  157.5669 C.ar    1  UNL1        0.0505
      2 C         143.1909  140.0385  156.5975 C.ar    1  UNL1        0.0148
      3 C         142.8340  141.4361  157.0086 C.ar    1  UNL1        0.0060
      4 C         142.3108  141.7014  158.3891 C.ar    1  UNL1        0.0553
      5 C         142.1444  140.5689  159.3586 C.ar    1  UNL1        0.0060
      6 C         142.5013  139.1712  158.9474 C.ar    1  UNL1        0.0148
      7 C         141.9539  143.0991  158.8002 C.ar    1  UNL1        0.2512
      8 N         142.6646  144.3509  158.3782 N.ar    1  UNL1       -0.1058
      9 N         141.9736  145.5159  159.0227 N.ar    1  UNL1       -0.0923
     10 C         140.8359  144.9842  159.8429 C.ar    1  UNL1        0.3086
     11 O         140.8237  143.4905  159.7055 O.2     1  UNL1       -0.4048
     12 N         139.8784  145.8024  160.6577 N.pl3   1  UNL1       -0.2871
     13 H         139.1169  146.2483  160.2212 H       1  UNL1        0.1512
     14 C         140.0812  145.9414  162.1374 C.3     1  UNL1        0.0925
     15 C         140.8304  144.8849  162.8942 C.3     1  UNL1        0.0386
     16 C         142.2197  145.1594  163.3885 C.3     1  UNL1        0.0738
     17 N         143.2774  144.1015  163.2788 N.3     1  UNL1       -0.2726
     18 C         143.9393  143.5715  164.5162 C.3     1  UNL1        0.0721
     19 C         144.9970  142.5136  164.4065 C.3     1  UNL1        0.0174
     20 C         145.3930  141.9858  163.0595 C.3     1  UNL1        0.0029
     21 C         144.7312  142.5158  161.8221 C.3     1  UNL1        0.0174
     22 C         143.6734  143.5737  161.9318 C.3     1  UNL1        0.0721
     23 O         140.8867  137.0321  156.6086 O.2     1  UNL1       -0.2697
     24 C         142.3125  136.5713  156.6767 C.2     1  UNL1        0.2539
     25 N         143.3814  137.5082  157.1558 N.am    1  UNL1       -0.2803
     26 H         144.3172  137.2058  157.2004 H       1  UNL1        0.1552
     27 C         142.6694  135.1736  156.2656 C.ar    1  UNL1        0.1084
     28 C         142.4112  134.7160  154.8606 C.ar    1  UNL1        0.1467
     29 F         141.7961  135.6561  153.8667 F       1  UNL1       -0.2039
     30 C         142.7681  133.3183  154.4496 C.ar    1  UNL1        0.0299
     31 C         143.3832  132.3781  155.4435 C.ar    1  UNL1        0.0046
     32 C         143.6414  132.8357  156.8484 C.ar    1  UNL1        0.0299
     33 C         143.2845  134.2334  157.2595 C.ar    1  UNL1        0.1467
     34 F         143.5427  134.6911  158.6645 F       1  UNL1       -0.2039
@<TRIPOS>BOND
     1    23    24    2
     2    24    25   am
     3    25     1    1
     4     1     2   ar
     5     2     3   ar
     6     3     4   ar
     7     4     7    1
     8     7     8   ar
     9     8     9   ar
    10     9    10   ar
    11    10    12    1
    12    12    14    1
    13    14    15    1
    14    15    16    1
    15    16    17    1
    16    17    18    1
    17    18    19    1
    18    19    20    1
    19    20    21    1
    20    21    22    1
    21    10    11   ar
    22     4     5   ar
    23     5     6   ar
    24    24    27    1
    25    27    28   ar
    26    28    29    1
    27    28    30   ar
    28    30    31   ar
    29    31    32   ar
    30    32    33   ar
    31    33    34    1
    32     6     1   ar
    33    33    27   ar
    34    11     7   ar
    35    22    17    1
    36    25    26    1
    37    12    13    1
@<TRIPOS>MOLECULE
*****
 34 37 0 0 0
SMALL
GASTEIGER

@<TRIPOS>ATOM
      1 C         139.2252  141.1987  161.4232 C.ar    1  UNL1        0.0505
      2 C         137.8854  140.7357  161.9134 C.ar    1  UNL1        0.0148
      3 C         137.7143  140.3148  163.3429 C.ar    1  UNL1        0.0060
      4 C         138.8830  140.3569  164.2822 C.ar    1  UNL1        0.0553
      5 C         140.2228  140.8199  163.7920 C.ar    1  UNL1        0.0060
      6 C         140.3940  141.2408  162.3625 C.ar    1  UNL1        0.0148
      7 C         138.7118  139.9359  165.7117 C.ar    1  UNL1        0.2512
      8 N         137.7237  138.9294  166.2222 N.ar    1  UNL1       -0.1058
      9 N         137.8998  138.8190  167.7077 N.ar    1  UNL1       -0.0923
     10 C         138.9969  139.7573  168.1153 C.ar    1  UNL1        0.3086
     11 O         139.4987  140.4476  166.8818 O.2     1  UNL1       -0.4048
     12 N         139.5032  139.9682  169.5115 N.pl3   1  UNL1       -0.2871
     13 H         139.7422  139.1940  170.0707 H       1  UNL1        0.1512
     14 C         139.6453  141.3588  170.0556 C.3     1  UNL1        0.0925
     15 C         141.0075  141.9126  170.3520 C.3     1  UNL1        0.0386
     16 C         142.2310  141.1064  170.0310 C.3     1  UNL1        0.0738
     17 N         142.5461  140.7564  168.6069 N.3     1  UNL1       -0.2726
     18 C         142.7130  139.3203  168.2068 C.3     1  UNL1        0.0721
     19 C         143.0281  138.9703  166.7827 C.3     1  UNL1        0.0174
     20 C         143.1764  140.0562  165.7586 C.3     1  UNL1        0.0029
     21 C         143.0095  141.4922  166.1587 C.3     1  UNL1        0.0174
     22 C         142.6944  141.8423  167.5828 C.3     1  UNL1        0.0721
     23 O         139.1650  144.1094  160.6990 O.2     1  UNL1       -0.2697
     24 C         139.3663  143.0750  159.6316 C.2     1  UNL1        0.2539
     25 N         139.3964  141.6197  159.9936 N.am    1  UNL1       -0.2803
     26 H         139.5286  140.9408  159.2930 H       1  UNL1        0.1552
     27 C         139.5375  143.4959  158.2020 C.ar    1  UNL1        0.1084
     28 C         140.7421  144.2907  157.7933 C.ar    1  UNL1        0.1467
     29 F         141.7756  144.6647  158.8142 F       1  UNL1       -0.2039
     30 C         140.9132  144.7117  156.3638 C.ar    1  UNL1        0.0299
     31 C         139.8797  144.3378  155.3430 C.ar    1  UNL1        0.0046
     32 C         138.6751  143.5429  155.7517 C.ar    1  UNL1        0.0299
     33 C         138.5040  143.1220  157.1812 C.ar    1  UNL1        0.1467
     34 F         137.2993  142.3272  157.5900 F       1  UNL1       -0.2039
@<TRIPOS>BOND
     1    23    24    2
     2    24    25   am
     3    25     1    1
     4     1     2   ar
     5     2     3   ar
     6     3     4   ar
     7     4     7    1
     8     7     8   ar
     9     8     9   ar
    10     9    10   ar
    11    10    12    1
    12    12    14    1
    13    14    15    1
    14    15    16    1
    15    16    17    1
    16    17    18    1
    17    18    19    1
    18    19    20    1
    19    20    21    1
    20    21    22    1
    21    10    11   ar
    22     4     5   ar
    23     5     6   ar
    24    24    27    1
    25    27    28   ar
    26    28    29    1
    27    28    30   ar
    28    30    31   ar
    29    31    32   ar
    30    32    33   ar
    31    33    34    1
    32     6     1   ar
    33    33    27   ar
    34    11     7   ar
    35    22    17    1
    36    25    26    1
    37    12    13    1
@<TRIPOS>MOLECULE
*****
 34 37 0 0 0
SMALL
GASTEIGER

@<TRIPOS>ATOM
      1 C         142.1852  138.0838  157.8359 C.ar    1  UNL1        0.0505
      2 C         142.9199  137.9895  159.1402 C.ar    1  UNL1        0.0148
      3 C         143.2288  139.2339  159.9185 C.ar    1  UNL1        0.0060
      4 C         142.8030  140.5726  159.3926 C.ar    1  UNL1        0.0553
      5 C         142.0683  140.6669  158.0883 C.ar    1  UNL1        0.0060
      6 C         141.7594  139.4225  157.3099 C.ar    1  UNL1        0.0148
      7 C         143.1119  141.8171  160.1711 C.ar    1  UNL1        0.2512
      8 N         144.4714  142.2565  160.6280 N.ar    1  UNL1       -0.1058
      9 N         144.3154  143.5516  161.3686 N.ar    1  UNL1       -0.0923
     10 C         142.8594  143.9125  161.3694 C.ar    1  UNL1        0.3086
     11 O         142.1157  142.8406  160.6293 O.2     1  UNL1       -0.4048
     12 N         142.2536  145.1315  161.9996 N.pl3   1  UNL1       -0.2871
     13 H         142.0050  145.9028  161.4405 H       1  UNL1        0.1512
     14 C         142.0266  145.1753  163.4816 C.3     1  UNL1        0.0925
     15 C         141.2054  144.1105  164.1464 C.3     1  UNL1        0.0386
     16 C         141.8564  143.1372  165.0840 C.3     1  UNL1        0.0738
     17 N         142.9691  142.2569  164.5974 N.3     1  UNL1       -0.2726
     18 C         142.6557  140.9414  163.9484 C.3     1  UNL1        0.0721
     19 C         143.7684  140.0611  163.4619 C.3     1  UNL1        0.0174
     20 C         145.1947  140.4962  163.6242 C.3     1  UNL1        0.0029
     21 C         145.5082  141.8117  164.2732 C.3     1  UNL1        0.0174
     22 C         144.3954  142.6920  164.7598 C.3     1  UNL1        0.0721
     23 O         144.2316  136.9376  155.9655 O.2     1  UNL1       -0.2697
     24 C         142.8994  136.2662  156.1223 C.2     1  UNL1        0.2539
     25 N         141.8762  136.8393  157.0574 N.am    1  UNL1       -0.2803
     26 H         141.0019  136.3987  157.1603 H       1  UNL1        0.1552
     27 C         142.5905  135.0218  155.3438 C.ar    1  UNL1        0.1084
     28 C         142.5449  133.6938  156.0397 C.ar    1  UNL1        0.1467
     29 F         142.8083  133.6101  157.5140 F       1  UNL1       -0.2039
     30 C         142.2360  132.4494  155.2612 C.ar    1  UNL1        0.0299
     31 C         141.9726  132.5330  153.7869 C.ar    1  UNL1        0.0046
     32 C         142.0182  133.8610  153.0910 C.ar    1  UNL1        0.0299
     33 C         142.3271  135.1054  153.8695 C.ar    1  UNL1        0.1467
     34 F         142.3727  136.4335  153.1736 F       1  UNL1       -0.2039
@<TRIPOS>BOND
     1    23    24    2
     2    24    25   am
     3    25     1    1
     4     1     2   ar
     5     2     3   ar
     6     3     4   ar
     7     4     7    1
     8     7     8   ar
     9     8     9   ar
    10     9    10   ar
    11    10    12    1
    12    12    14    1
    13    14    15    1
    14    15    16    1
    15    16    17    1
    16    17    18    1
    17    18    19    1
    18    19    20    1
    19    20    21    1
    20    21    22    1
    21    10    11   ar
    22     4     5   ar
    23     5     6   ar
    24    24    27    1
    25    27    28   ar
    26    28    29    1
    27    28    30   ar
    28    30    31   ar
    29    31    32   ar
    30    32    33   ar
    31    33    34    1
    32     6     1   ar
    33    33    27   ar
    34    11     7   ar
    35    22    17    1
    36    25    26    1
    37    12    13    1
