@<TRIPOS>MOLECULE
*****
 31 34 0 0 0
SMALL
GASTEIGER

@<TRIPOS>ATOM
      1 F         142.9687  143.9393  170.8663 F       1  UNL1       -0.2042
      2 C         142.2095  143.0508  169.9260 C.ar    1  UNL1        0.1401
      3 C         140.7129  142.9833  170.0017 C.ar    1  UNL1        0.0293
      4 C         139.9537  142.0948  169.0613 C.ar    1  UNL1       -0.0019
      5 C         140.6911  141.2739  168.0453 C.ar    1  UNL1       -0.0214
      6 C         142.1876  141.3414  167.9696 C.ar    1  UNL1       -0.0017
      7 C         142.9468  142.2299  168.9099 C.ar    1  UNL1        0.0293
      8 C         142.9250  140.5205  166.9535 C.ar    1  UNL1       -0.0003
      9 C         143.0445  139.0360  167.1323 C.ar    1  UNL1       -0.0000
     10 C         143.7819  138.2151  166.1163 C.ar    1  UNL1       -0.0001
     11 C         144.3998  138.8787  164.9214 C.ar    1  UNL1        0.0039
     12 C         144.2803  140.3632  164.7425 C.ar    1  UNL1        0.0714
     13 C         143.5429  141.1841  165.7586 C.ar    1  UNL1        0.0038
     14 C         144.8982  141.0269  163.5476 C.3     1  UNL1        0.4186
     15 F         145.5161  141.6905  162.3527 F       1  UNL1       -0.1659
     16 F         145.2753  142.2045  164.3967 F       1  UNL1       -0.1659
     17 F         144.5211  139.8492  162.6986 F       1  UNL1       -0.1659
     18 C         139.9319  140.3854  167.1049 C.3     1  UNL1        0.0352
     19 C         139.9267  140.6802  165.6342 C.3     1  UNL1        0.0520
     20 C         140.3876  139.6381  164.6588 C.ar    1  UNL1        0.0011
     21 C         140.2634  138.1829  165.0014 C.ar    1  UNL1       -0.0008
     22 C         140.7242  137.1408  164.0259 C.ar    1  UNL1        0.0204
     23 C         141.3093  137.5538  162.7079 C.ar    1  UNL1        0.0989
     24 N         141.4335  139.0088  162.3653 N.ar    1  UNL1       -0.2426
     25 C         140.9726  140.0509  163.3408 C.ar    1  UNL1        0.0949
     26 C         139.4606  142.0172  165.1389 C.ar    1  UNL1        0.0011
     27 C         140.3807  143.2005  165.1958 C.ar    1  UNL1       -0.0008
     28 C         139.9147  144.5374  164.7005 C.ar    1  UNL1        0.0204
     29 C         138.5285  144.6912  164.1483 C.ar    1  UNL1        0.0989
     30 N         137.6084  143.5079  164.0913 N.ar    1  UNL1       -0.2426
     31 C         138.0745  142.1709  164.5866 C.ar    1  UNL1        0.0949
@<TRIPOS>BOND
     1     1     2    1
     2     2     3   ar
     3     3     4   ar
     4     4     5   ar
     5     5    18    1
     6    18    19    1
     7    19    20    1
     8    20    21   ar
     9    21    22   ar
    10    22    23   ar
    11    23    24   ar
    12    24    25   ar
    13    19    26    1
    14    26    27   ar
    15    27    28   ar
    16    28    29   ar
    17    29    30   ar
    18    30    31   ar
    19     5     6   ar
    20     6     8    1
    21     8     9   ar
    22     9    10   ar
    23    10    11   ar
    24    11    12   ar
    25    12    14    1
    26    14    15    1
    27    14    16    1
    28    14    17    1
    29    12    13   ar
    30     6     7   ar
    31     7     2   ar
    32    25    20   ar
    33    31    26   ar
    34    13     8   ar
@<TRIPOS>MOLECULE
*****
 31 34 0 0 0
SMALL
GASTEIGER

@<TRIPOS>ATOM
      1 F         143.7601  139.6339  171.1175 F       1  UNL1       -0.2042
      2 C         142.9993  140.3788  170.0608 C.ar    1  UNL1        0.1401
      3 C         143.1864  141.8589  169.9048 C.ar    1  UNL1        0.0293
      4 C         142.4256  142.6038  168.8482 C.ar    1  UNL1       -0.0019
      5 C         141.4778  141.8686  167.9476 C.ar    1  UNL1       -0.0214
      6 C         141.2908  140.3885  168.1036 C.ar    1  UNL1       -0.0017
      7 C         142.0515  139.6436  169.1602 C.ar    1  UNL1        0.0293
      8 C         140.3429  139.6533  167.2030 C.ar    1  UNL1       -0.0003
      9 C         138.8904  139.5536  167.5639 C.ar    1  UNL1       -0.0000
     10 C         137.9426  138.8183  166.6632 C.ar    1  UNL1       -0.0001
     11 C         138.4473  138.1828  165.4017 C.ar    1  UNL1        0.0039
     12 C         139.8999  138.2825  165.0409 C.ar    1  UNL1        0.0714
     13 C         140.8477  139.0177  165.9415 C.ar    1  UNL1        0.0038
     14 C         140.4047  137.6470  163.7794 C.3     1  UNL1        0.4186
     15 F         140.9094  137.0114  162.5179 F       1  UNL1       -0.1659
     16 F         139.6345  138.6461  162.9679 F       1  UNL1       -0.1659
     17 F         141.1748  136.6478  164.5909 F       1  UNL1       -0.1659
     18 C         140.7171  142.6135  166.8910 C.3     1  UNL1        0.0352
     19 C         141.0753  142.4384  165.4450 C.3     1  UNL1        0.0520
     20 C         142.5091  142.2551  165.0444 C.ar    1  UNL1        0.0011
     21 C         142.9915  140.9140  164.5764 C.ar    1  UNL1       -0.0008
     22 C         144.4253  140.7307  164.1758 C.ar    1  UNL1        0.0204
     23 C         145.3768  141.8884  164.2431 C.ar    1  UNL1        0.0989
     24 N         144.8944  143.2294  164.7111 N.ar    1  UNL1       -0.2426
     25 C         143.4606  143.4127  165.1117 C.ar    1  UNL1        0.0949
     26 C         139.9996  142.4468  164.3995 C.ar    1  UNL1        0.0011
     27 C         138.6372  141.9076  164.7209 C.ar    1  UNL1       -0.0008
     28 C         137.5616  141.9159  163.6755 C.ar    1  UNL1        0.0204
     29 C         137.8483  142.4634  162.3086 C.ar    1  UNL1        0.0989
     30 N         139.2107  143.0025  161.9873 N.ar    1  UNL1       -0.2426
     31 C         140.2864  142.9942  163.0328 C.ar    1  UNL1        0.0949
@<TRIPOS>BOND
     1     1     2    1
     2     2     3   ar
     3     3     4   ar
     4     4     5   ar
     5     5    18    1
     6    18    19    1
     7    19    20    1
     8    20    21   ar
     9    21    22   ar
    10    22    23   ar
    11    23    24   ar
    12    24    25   ar
    13    19    26    1
    14    26    27   ar
    15    27    28   ar
    16    28    29   ar
    17    29    30   ar
    18    30    31   ar
    19     5     6   ar
    20     6     8    1
    21     8     9   ar
    22     9    10   ar
    23    10    11   ar
    24    11    12   ar
    25    12    14    1
    26    14    15    1
    27    14    16    1
    28    14    17    1
    29    12    13   ar
    30     6     7   ar
    31     7     2   ar
    32    25    20   ar
    33    31    26   ar
    34    13     8   ar
@<TRIPOS>MOLECULE
*****
 31 34 0 0 0
SMALL
GASTEIGER

@<TRIPOS>ATOM
      1 F         143.7632  139.6314  171.1193 F       1  UNL1       -0.2042
      2 C         142.9970  140.3761  170.0665 C.ar    1  UNL1        0.1401
      3 C         143.1741  141.8581  169.9172 C.ar    1  UNL1        0.0293
      4 C         142.4079  142.6027  168.8644 C.ar    1  UNL1       -0.0019
      5 C         141.4646  141.8654  167.9608 C.ar    1  UNL1       -0.0214
      6 C         141.2875  140.3835  168.1101 C.ar    1  UNL1       -0.0017
      7 C         142.0537  139.6388  169.1629 C.ar    1  UNL1        0.0293
      8 C         140.3441  139.6461  167.2065 C.ar    1  UNL1       -0.0003
      9 C         138.8853  139.5694  167.5469 C.ar    1  UNL1       -0.0000
     10 C         137.9420  138.8320  166.6433 C.ar    1  UNL1       -0.0001
     11 C         138.4575  138.1713  165.3993 C.ar    1  UNL1        0.0039
     12 C         139.9164  138.2480  165.0588 C.ar    1  UNL1        0.0714
     13 C         140.8597  138.9854  165.9624 C.ar    1  UNL1        0.0038
     14 C         140.4320  137.5874  163.8147 C.3     1  UNL1        0.4186
     15 F         140.9475  136.9267  162.5706 F       1  UNL1       -0.1659
     16 F         139.0243  137.3942  163.3339 F       1  UNL1       -0.1659
     17 F         141.8396  137.7805  164.2955 F       1  UNL1       -0.1659
     18 C         140.6984  142.6101  166.9080 C.3     1  UNL1        0.0352
     19 C         141.0686  142.4580  165.4624 C.3     1  UNL1        0.0520
     20 C         140.0027  142.4919  164.4077 C.ar    1  UNL1        0.0011
     21 C         138.6453  141.9216  164.6945 C.ar    1  UNL1       -0.0008
     22 C         137.5793  141.9555  163.6398 C.ar    1  UNL1        0.0204
     23 C         137.8707  142.5597  162.2981 C.ar    1  UNL1        0.0989
     24 N         139.2281  143.1300  162.0113 N.ar    1  UNL1       -0.2426
     25 C         140.2941  143.0961  163.0660 C.ar    1  UNL1        0.0949
     26 C         142.5049  142.2719  165.0716 C.ar    1  UNL1        0.0011
     27 C         142.9837  140.9347  164.5893 C.ar    1  UNL1       -0.0008
     28 C         144.4198  140.7486  164.1985 C.ar    1  UNL1        0.0204
     29 C         145.3772  141.8998  164.2899 C.ar    1  UNL1        0.0989
     30 N         144.8984  143.2370  164.7721 N.ar    1  UNL1       -0.2426
     31 C         143.4622  143.4231  165.1630 C.ar    1  UNL1        0.0949
@<TRIPOS>BOND
     1     1     2    1
     2     2     3   ar
     3     3     4   ar
     4     4     5   ar
     5     5    18    1
     6    18    19    1
     7    19    20    1
     8    20    21   ar
     9    21    22   ar
    10    22    23   ar
    11    23    24   ar
    12    24    25   ar
    13    19    26    1
    14    26    27   ar
    15    27    28   ar
    16    28    29   ar
    17    29    30   ar
    18    30    31   ar
    19     5     6   ar
    20     6     8    1
    21     8     9   ar
    22     9    10   ar
    23    10    11   ar
    24    11    12   ar
    25    12    14    1
    26    14    15    1
    27    14    16    1
    28    14    17    1
    29    12    13   ar
    30     6     7   ar
    31     7     2   ar
    32    25    20   ar
    33    31    26   ar
    34    13     8   ar
@<TRIPOS>MOLECULE
*****
 31 34 0 0 0
SMALL
GASTEIGER

@<TRIPOS>ATOM
      1 F         141.6973  142.1472  171.4972 F       1  UNL1       -0.2042
      2 C         141.2221  141.4529  170.2554 C.ar    1  UNL1        0.1401
      3 C         139.7831  141.0500  170.1253 C.ar    1  UNL1        0.0293
      4 C         139.3079  140.3557  168.8835 C.ar    1  UNL1       -0.0019
      5 C         140.2717  140.0643  167.7717 C.ar    1  UNL1       -0.0214
      6 C         141.7107  140.4672  167.9017 C.ar    1  UNL1       -0.0017
      7 C         142.1859  141.1615  169.1436 C.ar    1  UNL1        0.0293
      8 C         142.6746  140.1758  166.7899 C.ar    1  UNL1       -0.0003
      9 C         143.1556  138.7734  166.5626 C.ar    1  UNL1       -0.0000
     10 C         144.1195  138.4820  165.4507 C.ar    1  UNL1       -0.0001
     11 C         144.6024  139.5931  164.5663 C.ar    1  UNL1        0.0039
     12 C         144.1213  140.9956  164.7937 C.ar    1  UNL1        0.0714
     13 C         143.1575  141.2869  165.9055 C.ar    1  UNL1        0.0038
     14 C         144.6042  142.1067  163.9093 C.3     1  UNL1        0.4186
     15 F         145.0871  143.2179  163.0248 F       1  UNL1       -0.1659
     16 F         145.9928  141.5414  163.9571 F       1  UNL1       -0.1659
     17 F         143.2156  142.6721  163.8614 F       1  UNL1       -0.1659
     18 C         139.7966  139.3701  166.5298 C.3     1  UNL1        0.0352
     19 C         139.8650  140.0713  165.2057 C.3     1  UNL1        0.0520
     20 C         139.3021  141.4540  165.0593 C.ar    1  UNL1        0.0011
     21 C         140.0522  142.6312  165.6084 C.ar    1  UNL1       -0.0008
     22 C         139.4893  144.0139  165.4620 C.ar    1  UNL1        0.0204
     23 C         138.1763  144.2193  164.7664 C.ar    1  UNL1        0.0989
     24 N         137.4262  143.0421  164.2173 N.ar    1  UNL1       -0.2426
     25 C         137.9891  141.6595  164.3637 C.ar    1  UNL1        0.0949
     26 C         140.4963  139.3900  164.0278 C.ar    1  UNL1        0.0011
     27 C         141.1469  140.2052  162.9498 C.ar    1  UNL1       -0.0008
     28 C         141.7782  139.5240  161.7720 C.ar    1  UNL1        0.0204
     29 C         141.7590  138.0274  161.6722 C.ar    1  UNL1        0.0989
     30 N         141.1084  137.2121  162.7502 N.ar    1  UNL1       -0.2426
     31 C         140.4770  137.8935  163.9280 C.ar    1  UNL1        0.0949
@<TRIPOS>BOND
     1     1     2    1
     2     2     3   ar
     3     3     4   ar
     4     4     5   ar
     5     5    18    1
     6    18    19    1
     7    19    20    1
     8    20    21   ar
     9    21    22   ar
    10    22    23   ar
    11    23    24   ar
    12    24    25   ar
    13    19    26    1
    14    26    27   ar
    15    27    28   ar
    16    28    29   ar
    17    29    30   ar
    18    30    31   ar
    19     5     6   ar
    20     6     8    1
    21     8     9   ar
    22     9    10   ar
    23    10    11   ar
    24    11    12   ar
    25    12    14    1
    26    14    15    1
    27    14    16    1
    28    14    17    1
    29    12    13   ar
    30     6     7   ar
    31     7     2   ar
    32    25    20   ar
    33    31    26   ar
    34    13     8   ar
@<TRIPOS>MOLECULE
*****
 31 34 0 0 0
SMALL
GASTEIGER

@<TRIPOS>ATOM
      1 F         138.0136  142.5804  160.4939 F       1  UNL1       -0.2042
      2 C         138.4569  142.5611  161.9268 C.ar    1  UNL1        0.1401
      3 C         137.4410  142.4504  163.0248 C.ar    1  UNL1        0.0293
      4 C         137.8843  142.4311  164.4576 C.ar    1  UNL1       -0.0019
      5 C         139.3435  142.5224  164.7925 C.ar    1  UNL1       -0.0214
      6 C         140.3595  142.6330  163.6946 C.ar    1  UNL1       -0.0017
      7 C         139.9161  142.6524  162.2617 C.ar    1  UNL1        0.0293
      8 C         141.8188  142.7243  164.0295 C.ar    1  UNL1       -0.0003
      9 C         142.4477  144.0622  164.2836 C.ar    1  UNL1       -0.0000
     10 C         143.9070  144.1535  164.6185 C.ar    1  UNL1       -0.0001
     11 C         144.7374  142.9069  164.6992 C.ar    1  UNL1        0.0039
     12 C         144.1084  141.5690  164.4451 C.ar    1  UNL1        0.0714
     13 C         142.6492  141.4777  164.1102 C.ar    1  UNL1        0.0038
     14 C         144.9388  140.3224  164.5258 C.3     1  UNL1        0.4186
     15 F         145.7691  139.0758  164.6066 F       1  UNL1       -0.1659
     16 F         143.8405  139.6400  165.2861 F       1  UNL1       -0.1659
     17 F         146.0371  141.0048  163.7655 F       1  UNL1       -0.1659
     18 C         139.7868  142.5030  166.2254 C.3     1  UNL1        0.0352
     19 C         140.2619  141.2229  166.8463 C.3     1  UNL1        0.0520
     20 C         139.6706  139.9143  166.4126 C.ar    1  UNL1        0.0011
     21 C         138.4055  139.4162  167.0463 C.ar    1  UNL1       -0.0008
     22 C         137.8143  138.1076  166.6126 C.ar    1  UNL1        0.0204
     23 C         138.4882  137.2972  165.5453 C.ar    1  UNL1        0.0989
     24 N         139.7532  137.7953  164.9116 N.ar    1  UNL1       -0.2426
     25 C         140.3444  139.1039  165.3453 C.ar    1  UNL1        0.0949
     26 C         141.3283  141.2513  167.9009 C.ar    1  UNL1        0.0011
     27 C         142.4123  142.2864  167.8436 C.ar    1  UNL1       -0.0008
     28 C         143.4786  142.3149  168.8981 C.ar    1  UNL1        0.0204
     29 C         143.4610  141.3081  170.0100 C.ar    1  UNL1        0.0989
     30 N         142.3769  140.2730  170.0673 N.ar    1  UNL1       -0.2426
     31 C         141.3105  140.2446  169.0127 C.ar    1  UNL1        0.0949
@<TRIPOS>BOND
     1     1     2    1
     2     2     3   ar
     3     3     4   ar
     4     4     5   ar
     5     5    18    1
     6    18    19    1
     7    19    20    1
     8    20    21   ar
     9    21    22   ar
    10    22    23   ar
    11    23    24   ar
    12    24    25   ar
    13    19    26    1
    14    26    27   ar
    15    27    28   ar
    16    28    29   ar
    17    29    30   ar
    18    30    31   ar
    19     5     6   ar
    20     6     8    1
    21     8     9   ar
    22     9    10   ar
    23    10    11   ar
    24    11    12   ar
    25    12    14    1
    26    14    15    1
    27    14    16    1
    28    14    17    1
    29    12    13   ar
    30     6     7   ar
    31     7     2   ar
    32    25    20   ar
    33    31    26   ar
    34    13     8   ar
@<TRIPOS>MOLECULE
*****
 31 34 0 0 0
SMALL
GASTEIGER

@<TRIPOS>ATOM
      1 F         137.9990  142.1950  160.4127 F       1  UNL1       -0.2042
      2 C         138.4226  142.2430  161.8508 C.ar    1  UNL1        0.1401
      3 C         137.3928  142.1694  162.9389 C.ar    1  UNL1        0.0293
      4 C         137.8165  142.2173  164.3770 C.ar    1  UNL1       -0.0019
      5 C         139.2700  142.3388  164.7271 C.ar    1  UNL1       -0.0214
      6 C         140.2998  142.4123  163.6390 C.ar    1  UNL1       -0.0017
      7 C         139.8761  142.3644  162.2008 C.ar    1  UNL1        0.0293
      8 C         141.7534  142.5338  163.9890 C.ar    1  UNL1       -0.0003
      9 C         142.3507  143.8839  164.2542 C.ar    1  UNL1       -0.0000
     10 C         143.8043  144.0054  164.6042 C.ar    1  UNL1       -0.0001
     11 C         144.6605  142.7767  164.6889 C.ar    1  UNL1        0.0039
     12 C         144.0631  141.4265  164.4237 C.ar    1  UNL1        0.0714
     13 C         142.6096  141.3051  164.0737 C.ar    1  UNL1        0.0038
     14 C         144.9193  140.1978  164.5085 C.3     1  UNL1        0.4186
     15 F         145.7755  138.9691  164.5932 F       1  UNL1       -0.1659
     16 F         143.7740  139.4414  165.1135 F       1  UNL1       -0.1659
     17 F         146.0647  140.9542  163.9034 F       1  UNL1       -0.1659
     18 C         139.6936  142.3867  166.1652 C.3     1  UNL1        0.0352
     19 C         140.1443  141.1341  166.8564 C.3     1  UNL1        0.0520
     20 C         141.2267  141.1974  167.8930 C.ar    1  UNL1        0.0011
     21 C         142.3224  142.2147  167.7720 C.ar    1  UNL1       -0.0008
     22 C         143.4048  142.2780  168.8085 C.ar    1  UNL1        0.0204
     23 C         143.3915  141.3240  169.9661 C.ar    1  UNL1        0.0989
     24 N         142.2958  140.3067  170.0870 N.ar    1  UNL1       -0.2426
     25 C         141.2134  140.2435  169.0504 C.ar    1  UNL1        0.0949
     26 C         139.5125  139.8181  166.5112 C.ar    1  UNL1        0.0011
     27 C         140.0768  138.9840  165.3995 C.ar    1  UNL1       -0.0008
     28 C         139.4451  137.6681  165.0542 C.ar    1  UNL1        0.0204
     29 C         138.2490  137.1863  165.8206 C.ar    1  UNL1        0.0989
     30 N         137.6847  138.0204  166.9323 N.ar    1  UNL1       -0.2426
     31 C         138.3165  139.3364  167.2776 C.ar    1  UNL1        0.0949
@<TRIPOS>BOND
     1     1     2    1
     2     2     3   ar
     3     3     4   ar
     4     4     5   ar
     5     5    18    1
     6    18    19    1
     7    19    20    1
     8    20    21   ar
     9    21    22   ar
    10    22    23   ar
    11    23    24   ar
    12    24    25   ar
    13    19    26    1
    14    26    27   ar
    15    27    28   ar
    16    28    29   ar
    17    29    30   ar
    18    30    31   ar
    19     5     6   ar
    20     6     8    1
    21     8     9   ar
    22     9    10   ar
    23    10    11   ar
    24    11    12   ar
    25    12    14    1
    26    14    15    1
    27    14    16    1
    28    14    17    1
    29    12    13   ar
    30     6     7   ar
    31     7     2   ar
    32    25    20   ar
    33    31    26   ar
    34    13     8   ar
@<TRIPOS>MOLECULE
*****
 31 34 0 0 0
SMALL
GASTEIGER

@<TRIPOS>ATOM
      1 F         142.4849  138.3678  170.3321 F       1  UNL1       -0.2042
      2 C         141.9469  139.4480  169.4412 C.ar    1  UNL1        0.1401
      3 C         140.5683  139.9924  169.6711 C.ar    1  UNL1        0.0293
      4 C         140.0303  141.0727  168.7803 C.ar    1  UNL1       -0.0019
      5 C         140.8709  141.6085  167.6595 C.ar    1  UNL1       -0.0214
      6 C         142.2495  141.0640  167.4296 C.ar    1  UNL1       -0.0017
      7 C         142.7875  139.9838  168.3205 C.ar    1  UNL1        0.0293
      8 C         143.0903  141.5998  166.3088 C.ar    1  UNL1       -0.0003
      9 C         143.7065  142.9629  166.4189 C.ar    1  UNL1       -0.0000
     10 C         144.5473  143.4987  165.2980 C.ar    1  UNL1       -0.0001
     11 C         144.7717  142.6713  164.0671 C.ar    1  UNL1        0.0039
     12 C         144.1554  141.3082  163.9571 C.ar    1  UNL1        0.0714
     13 C         143.3147  140.7724  165.0779 C.ar    1  UNL1        0.0038
     14 C         144.3798  140.4808  162.7262 C.3     1  UNL1        0.4186
     15 F         144.6042  139.6534  161.4953 F       1  UNL1       -0.1659
     16 F         143.3996  139.4637  163.2311 F       1  UNL1       -0.1659
     17 F         145.3599  141.4978  162.2212 F       1  UNL1       -0.1659
     18 C         140.3329  142.6887  166.7686 C.3     1  UNL1        0.0352
     19 C         139.9464  142.3714  165.3545 C.3     1  UNL1        0.0520
     20 C         139.5949  140.9646  164.9707 C.ar    1  UNL1        0.0011
     21 C         138.6853  140.1536  165.8453 C.ar    1  UNL1       -0.0008
     22 C         138.3338  138.7468  165.4615 C.ar    1  UNL1        0.0204
     23 C         138.8919  138.1509  164.2031 C.ar    1  UNL1        0.0989
     24 N         139.8015  138.9619  163.3285 N.ar    1  UNL1       -0.2426
     25 C         140.1530  140.3688  163.7123 C.ar    1  UNL1        0.0949
     26 C         139.9114  143.4609  164.3240 C.ar    1  UNL1        0.0011
     27 C         141.1671  144.2033  163.9745 C.ar    1  UNL1       -0.0008
     28 C         141.1322  145.2928  162.9441 C.ar    1  UNL1        0.0204
     29 C         139.8415  145.6400  162.2632 C.ar    1  UNL1        0.0989
     30 N         138.5858  144.8976  162.6127 N.ar    1  UNL1       -0.2426
     31 C         138.6208  143.8081  163.6431 C.ar    1  UNL1        0.0949
@<TRIPOS>BOND
     1     1     2    1
     2     2     3   ar
     3     3     4   ar
     4     4     5   ar
     5     5    18    1
     6    18    19    1
     7    19    20    1
     8    20    21   ar
     9    21    22   ar
    10    22    23   ar
    11    23    24   ar
    12    24    25   ar
    13    19    26    1
    14    26    27   ar
    15    27    28   ar
    16    28    29   ar
    17    29    30   ar
    18    30    31   ar
    19     5     6   ar
    20     6     8    1
    21     8     9   ar
    22     9    10   ar
    23    10    11   ar
    24    11    12   ar
    25    12    14    1
    26    14    15    1
    27    14    16    1
    28    14    17    1
    29    12    13   ar
    30     6     7   ar
    31     7     2   ar
    32    25    20   ar
    33    31    26   ar
    34    13     8   ar
@<TRIPOS>MOLECULE
*****
 31 34 0 0 0
SMALL
GASTEIGER

@<TRIPOS>ATOM
      1 F         139.0510  137.8587  160.7053 F       1  UNL1       -0.2042
      2 C         139.0476  138.3832  162.1106 C.ar    1  UNL1        0.1401
      3 C         139.0710  137.4286  163.2674 C.ar    1  UNL1        0.0293
      4 C         139.0675  137.9531  164.6728 C.ar    1  UNL1       -0.0019
      5 C         139.0407  139.4321  164.9213 C.ar    1  UNL1       -0.0214
      6 C         139.0173  140.3866  163.7644 C.ar    1  UNL1       -0.0017
      7 C         139.0207  139.8622  162.3591 C.ar    1  UNL1        0.0293
      8 C         138.9904  141.8657  164.0129 C.ar    1  UNL1       -0.0003
      9 C         137.7256  142.5255  164.4764 C.ar    1  UNL1       -0.0000
     10 C         137.6988  144.0046  164.7249 C.ar    1  UNL1       -0.0001
     11 C         138.9368  144.8238  164.5098 C.ar    1  UNL1        0.0039
     12 C         140.2017  144.1639  164.0462 C.ar    1  UNL1        0.0714
     13 C         140.2284  142.6849  163.7978 C.ar    1  UNL1        0.0038
     14 C         141.4397  144.9831  163.8311 C.3     1  UNL1        0.4186
     15 F         142.6777  145.8023  163.6161 F       1  UNL1       -0.1659
     16 F         142.1952  144.0871  164.7672 F       1  UNL1       -0.1659
     17 F         140.6841  145.8792  162.8951 F       1  UNL1       -0.1659
     18 C         139.0372  139.9566  166.3266 C.3     1  UNL1        0.0352
     19 C         140.3169  140.4196  166.9574 C.3     1  UNL1        0.0520
     20 C         140.2797  141.2579  168.2008 C.ar    1  UNL1        0.0011
     21 C         140.4897  142.7405  168.1124 C.ar    1  UNL1       -0.0008
     22 C         140.4526  143.5787  169.3557 C.ar    1  UNL1        0.0204
     23 C         140.2054  142.9343  170.6876 C.ar    1  UNL1        0.0989
     24 N         139.9955  141.4517  170.7760 N.ar    1  UNL1       -0.2426
     25 C         140.0326  140.6135  169.5326 C.ar    1  UNL1        0.0949
     26 C         141.6338  140.0444  166.3449 C.ar    1  UNL1        0.0011
     27 C         142.3675  141.0286  165.4829 C.ar    1  UNL1       -0.0008
     28 C         143.6843  140.6535  164.8704 C.ar    1  UNL1        0.0204
     29 C         144.2675  139.2941  165.1199 C.ar    1  UNL1        0.0989
     30 N         143.5338  138.3100  165.9820 N.ar    1  UNL1       -0.2426
     31 C         142.2169  138.6852  166.5945 C.ar    1  UNL1        0.0949
@<TRIPOS>BOND
     1     1     2    1
     2     2     3   ar
     3     3     4   ar
     4     4     5   ar
     5     5    18    1
     6    18    19    1
     7    19    20    1
     8    20    21   ar
     9    21    22   ar
    10    22    23   ar
    11    23    24   ar
    12    24    25   ar
    13    19    26    1
    14    26    27   ar
    15    27    28   ar
    16    28    29   ar
    17    29    30   ar
    18    30    31   ar
    19     5     6   ar
    20     6     8    1
    21     8     9   ar
    22     9    10   ar
    23    10    11   ar
    24    11    12   ar
    25    12    14    1
    26    14    15    1
    27    14    16    1
    28    14    17    1
    29    12    13   ar
    30     6     7   ar
    31     7     2   ar
    32    25    20   ar
    33    31    26   ar
    34    13     8   ar
@<TRIPOS>MOLECULE
*****
 31 34 0 0 0
SMALL
GASTEIGER

@<TRIPOS>ATOM
      1 F         138.6664  137.7223  161.3621 F       1  UNL1       -0.2042
      2 C         138.9469  138.3542  162.6933 C.ar    1  UNL1        0.1401
      3 C         139.2125  137.4920  163.8916 C.ar    1  UNL1        0.0293
      4 C         139.4930  138.1238  165.2228 C.ar    1  UNL1       -0.0019
      5 C         139.5079  139.6178  165.3557 C.ar    1  UNL1       -0.0214
      6 C         139.2423  140.4800  164.1573 C.ar    1  UNL1       -0.0017
      7 C         138.9618  139.8481  162.8261 C.ar    1  UNL1        0.0293
      8 C         139.2572  141.9741  164.2902 C.ar    1  UNL1       -0.0003
      9 C         138.0067  142.7048  164.6803 C.ar    1  UNL1       -0.0000
     10 C         138.0216  144.1989  164.8131 C.ar    1  UNL1       -0.0001
     11 C         139.2871  144.9622  164.5558 C.ar    1  UNL1        0.0039
     12 C         140.5376  144.2313  164.1656 C.ar    1  UNL1        0.0714
     13 C         140.5226  142.7373  164.0328 C.ar    1  UNL1        0.0038
     14 C         141.8030  144.9945  163.9083 C.3     1  UNL1        0.4186
     15 F         143.0684  145.7577  163.6510 F       1  UNL1       -0.1659
     16 F         142.5384  144.0952  164.8572 F       1  UNL1       -0.1659
     17 F         141.0676  145.8938  162.9594 F       1  UNL1       -0.1659
     18 C         139.7883  140.2496  166.6869 C.3     1  UNL1        0.0352
     19 C         141.1744  140.7180  167.0177 C.3     1  UNL1        0.0520
     20 C         142.3509  140.1685  166.2668 C.ar    1  UNL1        0.0011
     21 C         142.9365  140.9401  165.1214 C.ar    1  UNL1       -0.0008
     22 C         144.1130  140.3906  164.3705 C.ar    1  UNL1        0.0204
     23 C         144.7040  139.0695  164.7650 C.ar    1  UNL1        0.0989
     24 N         144.1184  138.2979  165.9103 N.ar    1  UNL1       -0.2426
     25 C         142.9419  138.8474  166.6612 C.ar    1  UNL1        0.0949
     26 C         141.3840  141.7359  168.0994 C.ar    1  UNL1        0.0011
     27 C         140.2613  142.6464  168.5002 C.ar    1  UNL1       -0.0008
     28 C         140.4709  143.6642  169.5818 C.ar    1  UNL1        0.0204
     29 C         141.8031  143.7716  170.2628 C.ar    1  UNL1        0.0989
     30 N         142.9258  142.8611  169.8620 N.ar    1  UNL1       -0.2426
     31 C         142.7162  141.8432  168.7803 C.ar    1  UNL1        0.0949
@<TRIPOS>BOND
     1     1     2    1
     2     2     3   ar
     3     3     4   ar
     4     4     5   ar
     5     5    18    1
     6    18    19    1
     7    19    20    1
     8    20    21   ar
     9    21    22   ar
    10    22    23   ar
    11    23    24   ar
    12    24    25   ar
    13    19    26    1
    14    26    27   ar
    15    27    28   ar
    16    28    29   ar
    17    29    30   ar
    18    30    31   ar
    19     5     6   ar
    20     6     8    1
    21     8     9   ar
    22     9    10   ar
    23    10    11   ar
    24    11    12   ar
    25    12    14    1
    26    14    15    1
    27    14    16    1
    28    14    17    1
    29    12    13   ar
    30     6     7   ar
    31     7     2   ar
    32    25    20   ar
    33    31    26   ar
    34    13     8   ar
