@<TRIPOS>MOLECULE
*****
 30 33 0 0 0
SMALL
GASTEIGER

@<TRIPOS>ATOM
      1 N         141.3354  145.5222  160.6083 N.am    1  UNL1       -0.2893
      2 C         141.0523  144.7026  159.3844 C.2     1  UNL1        0.2822
      3 O         140.8512  143.2209  159.5039 O.2     1  UNL1       -0.2668
      4 H         141.4674  146.4946  160.5299 H       1  UNL1        0.1503
      5 C         138.5129  144.4280  164.6484 C.3     1  UNL1        0.1202
      6 N         139.9063  144.2743  164.1148 N.am    1  UNL1       -0.2528
      7 C         140.1484  144.8510  162.7515 C.2     1  UNL1        0.2511
      8 O         138.9652  145.5052  162.1020 O.2     1  UNL1       -0.2726
      9 C         141.4175  144.8601  161.9518 C.3     1  UNL1        0.1936
     10 C         142.7578  144.2946  162.3179 C.3     1  UNL1        0.2342
     11 O         143.1599  143.5805  163.5742 O.3     1  UNL1       -0.4719
     12 C         142.3213  143.2553  164.7746 C.ar    1  UNL1        0.1522
     13 C         143.1164  142.5276  165.8177 C.ar    1  UNL1        0.0382
     14 C         142.4635  142.1086  167.1015 C.ar    1  UNL1        0.0032
     15 C         141.0154  142.4174  167.3421 C.ar    1  UNL1        0.0015
     16 C         140.2203  143.1451  166.2990 C.ar    1  UNL1        0.0180
     17 C         140.8733  143.5641  165.0152 C.ar    1  UNL1        0.0881
     18 C         140.9702  145.3647  158.0409 C.ar    1  UNL1        0.2167
     19 N         142.1101  145.5690  157.0875 N.ar    1  UNL1       -0.1245
     20 N         141.5782  146.2693  155.8723 N.ar    1  UNL1       -0.1331
     21 C         140.1096  146.4978  156.0746 C.ar    1  UNL1        0.1445
     22 N         139.7337  145.9387  157.4149 N.ar    1  UNL1       -0.3206
     23 H         138.8337  145.9471  157.8137 H       1  UNL1        0.1687
     24 C         139.1799  147.1677  155.1067 C.3     1  UNL1        0.0919
     25 C         139.2520  148.6520  154.9025 C.ar    1  UNL1       -0.0146
     26 C         140.0570  149.2148  153.7688 C.ar    1  UNL1       -0.0038
     27 C         140.1291  150.6991  153.5646 C.ar    1  UNL1       -0.0003
     28 C         139.3962  151.6206  154.4940 C.ar    1  UNL1       -0.0000
     29 C         138.5912  151.0577  155.6276 C.ar    1  UNL1       -0.0003
     30 C         138.5192  149.5734  155.8319 C.ar    1  UNL1       -0.0038
@<TRIPOS>BOND
     1     5     6    1
     2     6     7   am
     3     7     8    2
     4     7     9    1
     5     9     1    1
     6     1     2   am
     7     2     3    2
     8     2    18    1
     9    18    19   ar
    10    19    20   ar
    11    20    21   ar
    12    21    24    1
    13    24    25    1
    14    25    26   ar
    15    26    27   ar
    16    27    28   ar
    17    28    29   ar
    18    29    30   ar
    19    21    22   ar
    20     9    10    1
    21    10    11    1
    22    11    12    1
    23    12    13   ar
    24    13    14   ar
    25    14    15   ar
    26    15    16   ar
    27    16    17   ar
    28    17     6    1
    29    22    18   ar
    30    17    12   ar
    31    30    25   ar
    32     1     4    1
    33    22    23    1
@<TRIPOS>MOLECULE
*****
 30 33 0 0 0
SMALL
GASTEIGER

@<TRIPOS>ATOM
      1 N         141.6432  145.2166  161.2767 N.am    1  UNL1       -0.2893
      2 C         141.2810  144.4324  160.0504 C.2     1  UNL1        0.2822
      3 O         140.9638  142.9705  160.1615 O.2     1  UNL1       -0.2668
      4 H         141.8514  146.1761  161.2037 H       1  UNL1        0.1503
      5 C         144.8279  142.8454  164.3946 C.3     1  UNL1        0.1202
      6 N         143.3934  143.2694  164.2834 N.am    1  UNL1       -0.2528
      7 C         143.0243  143.9924  163.0221 C.2     1  UNL1        0.2511
      8 O         144.1385  144.1958  162.0387 O.2     1  UNL1       -0.2726
      9 C         141.6883  144.5390  162.6141 C.3     1  UNL1        0.1936
     10 C         140.3914  144.4975  163.3667 C.3     1  UNL1        0.2342
     11 O         140.1103  143.8992  164.7132 O.3     1  UNL1       -0.4719
     12 C         141.0565  143.1946  165.6397 C.ar    1  UNL1        0.1522
     13 C         140.3650  142.7479  166.8935 C.ar    1  UNL1        0.0382
     14 C         141.1346  142.0209  167.9561 C.ar    1  UNL1        0.0032
     15 C         142.5958  141.7407  167.7649 C.ar    1  UNL1        0.0015
     16 C         143.2873  142.1874  166.5110 C.ar    1  UNL1        0.0180
     17 C         142.5177  142.9143  165.4484 C.ar    1  UNL1        0.0881
     18 C         141.2359  145.1100  158.7130 C.ar    1  UNL1        0.2167
     19 N         142.4163  145.6322  157.9489 N.ar    1  UNL1       -0.1245
     20 N         141.9125  146.2294  156.6684 N.ar    1  UNL1       -0.1331
     21 C         140.4205  146.0763  156.6412 C.ar    1  UNL1        0.1445
     22 N         140.0023  145.3845  157.9047 N.ar    1  UNL1       -0.3206
     23 H         139.0802  145.1515  158.1590 H       1  UNL1        0.1687
     24 C         139.5071  146.5345  155.5431 C.3     1  UNL1        0.0919
     25 C         139.3487  147.9993  155.2616 C.ar    1  UNL1       -0.0146
     26 C         139.9300  148.5899  154.0114 C.ar    1  UNL1       -0.0038
     27 C         139.7716  150.0547  153.7298 C.ar    1  UNL1       -0.0003
     28 C         139.0318  150.9289  154.6986 C.ar    1  UNL1       -0.0000
     29 C         138.4504  150.3383  155.9488 C.ar    1  UNL1       -0.0003
     30 C         138.6089  148.8735  156.2303 C.ar    1  UNL1       -0.0038
@<TRIPOS>BOND
     1     5     6    1
     2     6     7   am
     3     7     8    2
     4     7     9    1
     5     9     1    1
     6     1     2   am
     7     2     3    2
     8     2    18    1
     9    18    19   ar
    10    19    20   ar
    11    20    21   ar
    12    21    24    1
    13    24    25    1
    14    25    26   ar
    15    26    27   ar
    16    27    28   ar
    17    28    29   ar
    18    29    30   ar
    19    21    22   ar
    20     9    10    1
    21    10    11    1
    22    11    12    1
    23    12    13   ar
    24    13    14   ar
    25    14    15   ar
    26    15    16   ar
    27    16    17   ar
    28    17     6    1
    29    22    18   ar
    30    17    12   ar
    31    30    25   ar
    32     1     4    1
    33    22    23    1
@<TRIPOS>MOLECULE
*****
 30 33 0 0 0
SMALL
GASTEIGER

@<TRIPOS>ATOM
      1 N         142.3151  137.7875  160.9862 N.am    1  UNL1       -0.2893
      2 C         142.0265  138.6002  159.7590 C.2     1  UNL1        0.2822
      3 O         141.0777  139.7597  159.8333 O.2     1  UNL1       -0.2668
      4 H         142.9377  137.0265  160.9375 H       1  UNL1        0.1503
      5 C         143.2049  140.1535  165.3562 C.3     1  UNL1        0.1202
      6 N         142.1313  139.4009  164.6274 N.am    1  UNL1       -0.2528
      7 C         142.4964  138.9088  163.2583 C.2     1  UNL1        0.2511
      8 O         143.8867  139.2343  162.7989 O.2     1  UNL1       -0.2726
      9 C         141.6549  138.1342  162.2878 C.3     1  UNL1        0.1936
     10 C         140.2406  137.6604  162.4467 C.3     1  UNL1        0.2342
     11 O         139.3185  137.8442  163.6154 O.3     1  UNL1       -0.4719
     12 C         139.5829  138.5472  164.9139 C.ar    1  UNL1        0.1522
     13 C         138.3852  138.5010  165.8158 C.ar    1  UNL1        0.0382
     14 C         138.4395  139.1477  167.1681 C.ar    1  UNL1        0.0032
     15 C         139.6914  139.8405  167.6185 C.ar    1  UNL1        0.0015
     16 C         140.8890  139.8867  166.7166 C.ar    1  UNL1        0.0180
     17 C         140.8347  139.2400  165.3643 C.ar    1  UNL1        0.0881
     18 C         142.6866  138.2535  158.4575 C.ar    1  UNL1        0.2167
     19 N         143.6594  139.1130  157.7058 N.ar    1  UNL1       -0.1245
     20 N         144.0639  138.3772  156.4629 N.ar    1  UNL1       -0.1331
     21 C         143.3410  137.0629  156.4463 C.ar    1  UNL1        0.1445
     22 N         142.4898  136.9865  157.6790 N.ar    1  UNL1       -0.3206
     23 H         141.9047  136.2364  157.9326 H       1  UNL1        0.1687
     24 C         143.4502  136.0100  155.3836 C.3     1  UNL1        0.0919
     25 C         143.1352  134.5800  155.7094 C.ar    1  UNL1       -0.0146
     26 C         141.9755  133.8976  155.0465 C.ar    1  UNL1       -0.0038
     27 C         141.6606  132.4677  155.3724 C.ar    1  UNL1       -0.0003
     28 C         142.5054  131.7202  156.3611 C.ar    1  UNL1       -0.0000
     29 C         143.6651  132.4025  157.0239 C.ar    1  UNL1       -0.0003
     30 C         143.9800  133.8325  156.6981 C.ar    1  UNL1       -0.0038
@<TRIPOS>BOND
     1     5     6    1
     2     6     7   am
     3     7     8    2
     4     7     9    1
     5     9     1    1
     6     1     2   am
     7     2     3    2
     8     2    18    1
     9    18    19   ar
    10    19    20   ar
    11    20    21   ar
    12    21    24    1
    13    24    25    1
    14    25    26   ar
    15    26    27   ar
    16    27    28   ar
    17    28    29   ar
    18    29    30   ar
    19    21    22   ar
    20     9    10    1
    21    10    11    1
    22    11    12    1
    23    12    13   ar
    24    13    14   ar
    25    14    15   ar
    26    15    16   ar
    27    16    17   ar
    28    17     6    1
    29    22    18   ar
    30    17    12   ar
    31    30    25   ar
    32     1     4    1
    33    22    23    1
@<TRIPOS>MOLECULE
*****
 30 33 0 0 0
SMALL
GASTEIGER

@<TRIPOS>ATOM
      1 N         140.9923  142.8479  161.1368 N.am    1  UNL1       -0.2893
      2 C         140.2543  144.0601  160.6512 C.2     1  UNL1        0.2822
      3 O         139.0784  144.5815  161.4228 O.2     1  UNL1       -0.2668
      4 H         141.7641  142.5058  160.6304 H       1  UNL1        0.1503
      5 C         142.1056  142.5132  166.0495 C.3     1  UNL1        0.1202
      6 N         141.1505  141.9778  165.0244 N.am    1  UNL1       -0.2528
      7 C         141.3372  142.4942  163.6285 C.2     1  UNL1        0.2511
      8 O         142.4544  143.4776  163.4423 O.2     1  UNL1       -0.2726
      9 C         140.5544  142.1570  162.3941 C.3     1  UNL1        0.1936
     10 C         139.3916  141.2203  162.2508 C.3     1  UNL1        0.2342
     11 O         138.7244  140.3894  163.3065 O.3     1  UNL1       -0.4719
     12 C         139.0552  140.2899  164.7662 C.ar    1  UNL1        0.1522
     13 C         138.1361  139.3381  165.4728 C.ar    1  UNL1        0.0382
     14 C         138.2967  139.0932  166.9439 C.ar    1  UNL1        0.0032
     15 C         139.3764  139.8001  167.7084 C.ar    1  UNL1        0.0015
     16 C         140.2955  140.7519  167.0019 C.ar    1  UNL1        0.0180
     17 C         140.1349  140.9968  165.5308 C.ar    1  UNL1        0.0881
     18 C         140.6923  144.7511  159.3939 C.ar    1  UNL1        0.2167
     19 N         142.0190  145.4134  159.1681 N.ar    1  UNL1       -0.1245
     20 N         142.0271  145.9727  157.7763 N.ar    1  UNL1       -0.1331
     21 C         140.7053  145.6560  157.1418 C.ar    1  UNL1        0.1445
     22 N         139.8802  144.9010  158.1415 N.ar    1  UNL1       -0.3206
     23 H         138.9663  144.5631  158.0005 H       1  UNL1        0.1687
     24 C         140.2826  146.0288  155.7517 C.3     1  UNL1        0.0919
     25 C         139.8309  147.4281  155.4550 C.ar    1  UNL1       -0.0146
     26 C         140.2632  148.1027  154.1870 C.ar    1  UNL1       -0.0038
     27 C         139.8115  149.5020  153.8903 C.ar    1  UNL1       -0.0003
     28 C         138.9275  150.2266  154.8616 C.ar    1  UNL1       -0.0000
     29 C         138.4952  149.5520  156.1296 C.ar    1  UNL1       -0.0003
     30 C         138.9469  148.1527  156.4263 C.ar    1  UNL1       -0.0038
@<TRIPOS>BOND
     1     5     6    1
     2     6     7   am
     3     7     8    2
     4     7     9    1
     5     9     1    1
     6     1     2   am
     7     2     3    2
     8     2    18    1
     9    18    19   ar
    10    19    20   ar
    11    20    21   ar
    12    21    24    1
    13    24    25    1
    14    25    26   ar
    15    26    27   ar
    16    27    28   ar
    17    28    29   ar
    18    29    30   ar
    19    21    22   ar
    20     9    10    1
    21    10    11    1
    22    11    12    1
    23    12    13   ar
    24    13    14   ar
    25    14    15   ar
    26    15    16   ar
    27    16    17   ar
    28    17     6    1
    29    22    18   ar
    30    17    12   ar
    31    30    25   ar
    32     1     4    1
    33    22    23    1
@<TRIPOS>MOLECULE
*****
 30 33 0 0 0
SMALL
GASTEIGER

@<TRIPOS>ATOM
      1 N         140.0127  143.8893  161.2084 N.am    1  UNL1       -0.2893
      2 C         141.2242  144.5203  160.5886 C.2     1  UNL1        0.2822
      3 O         142.5220  144.5498  161.3402 O.2     1  UNL1       -0.2668
      4 H         139.1609  143.8700  160.7152 H       1  UNL1        0.1503
      5 C         140.1824  139.4230  163.5557 C.3     1  UNL1        0.1202
      6 N         140.1899  140.8965  163.8365 N.am    1  UNL1       -0.2528
      7 C         140.1119  141.7887  162.6332 C.2     1  UNL1        0.2511
      8 O         140.0366  141.0895  161.3083 O.2     1  UNL1       -0.2726
      9 C         140.0991  143.2877  162.5798 C.3     1  UNL1        0.1936
     10 C         140.1612  144.2647  163.7163 C.3     1  UNL1        0.2342
     11 O         140.2515  143.9839  165.1870 O.3     1  UNL1       -0.4719
     12 C         140.3019  142.6569  165.8845 C.ar    1  UNL1        0.1522
     13 C         140.3904  142.8229  167.3726 C.ar    1  UNL1        0.0382
     14 C         140.4515  141.6149  168.2597 C.ar    1  UNL1        0.0032
     15 C         140.4241  140.2409  167.6587 C.ar    1  UNL1        0.0015
     16 C         140.3356  140.0748  166.1705 C.ar    1  UNL1        0.0180
     17 C         140.2745  141.2828  165.2835 C.ar    1  UNL1        0.0881
     18 C         141.1378  145.1219  159.2172 C.ar    1  UNL1        0.2167
     19 N         142.2986  145.5057  158.3481 N.ar    1  UNL1       -0.1245
     20 N         141.7537  146.0664  157.0679 N.ar    1  UNL1       -0.1331
     21 C         140.2562  146.0290  157.1458 C.ar    1  UNL1        0.1445
     22 N         139.8755  145.4453  158.4742 N.ar    1  UNL1       -0.3206
     23 H         138.9582  145.3000  158.8009 H       1  UNL1        0.1687
     24 C         139.3061  146.4937  156.0822 C.3     1  UNL1        0.0919
     25 C         139.1347  147.9604  155.8184 C.ar    1  UNL1       -0.0146
     26 C         139.6119  148.5505  154.5245 C.ar    1  UNL1       -0.0038
     27 C         139.4405  150.0171  154.2607 C.ar    1  UNL1       -0.0003
     28 C         138.7920  150.8937  155.2908 C.ar    1  UNL1       -0.0000
     29 C         138.3148  150.3036  156.5846 C.ar    1  UNL1       -0.0003
     30 C         138.4862  148.8370  156.8484 C.ar    1  UNL1       -0.0038
@<TRIPOS>BOND
     1     5     6    1
     2     6     7   am
     3     7     8    2
     4     7     9    1
     5     9     1    1
     6     1     2   am
     7     2     3    2
     8     2    18    1
     9    18    19   ar
    10    19    20   ar
    11    20    21   ar
    12    21    24    1
    13    24    25    1
    14    25    26   ar
    15    26    27   ar
    16    27    28   ar
    17    28    29   ar
    18    29    30   ar
    19    21    22   ar
    20     9    10    1
    21    10    11    1
    22    11    12    1
    23    12    13   ar
    24    13    14   ar
    25    14    15   ar
    26    15    16   ar
    27    16    17   ar
    28    17     6    1
    29    22    18   ar
    30    17    12   ar
    31    30    25   ar
    32     1     4    1
    33    22    23    1
@<TRIPOS>MOLECULE
*****
 30 33 0 0 0
SMALL
GASTEIGER

@<TRIPOS>ATOM
      1 N         142.0975  138.2091  161.7039 N.am    1  UNL1       -0.2893
      2 C         142.5594  139.2515  160.7293 C.2     1  UNL1        0.2822
      3 O         142.7728  140.6640  161.1868 O.2     1  UNL1       -0.2668
      4 H         141.9574  137.2820  161.4036 H       1  UNL1        0.1503
      5 C         138.3832  139.5645  164.8429 C.3     1  UNL1        0.1202
      6 N         139.8603  139.3048  164.8167 N.am    1  UNL1       -0.2528
      7 C         140.4271  138.9035  163.4871 C.2     1  UNL1        0.2511
      8 O         139.4419  138.8150  162.3596 O.2     1  UNL1       -0.2726
      9 C         141.8489  138.5791  163.1361 C.3     1  UNL1        0.1936
     10 C         143.0551  138.5757  164.0279 C.3     1  UNL1        0.2342
     11 O         143.1372  138.8960  165.4910 O.3     1  UNL1       -0.4719
     12 C         142.0336  139.2988  166.4237 C.ar    1  UNL1        0.1522
     13 C         142.5475  139.5283  167.8141 C.ar    1  UNL1        0.0382
     14 C         141.6031  139.9397  168.9043 C.ar    1  UNL1        0.0032
     15 C         140.1447  140.1216  168.6043 C.ar    1  UNL1        0.0015
     16 C         139.6308  139.8921  167.2139 C.ar    1  UNL1        0.0180
     17 C         140.5752  139.4807  166.1236 C.ar    1  UNL1        0.0881
     18 C         142.8080  138.8814  159.2970 C.ar    1  UNL1        0.2167
     19 N         143.8496  139.4809  158.3995 N.ar    1  UNL1       -0.1245
     20 N         143.7440  138.8169  157.0586 N.ar    1  UNL1       -0.1331
     21 C         142.6370  137.8070  157.1274 C.ar    1  UNL1        0.1445
     22 N         142.0585  137.8469  158.5108 N.ar    1  UNL1       -0.3206
     23 H         141.3171  137.2915  158.8442 H       1  UNL1        0.1687
     24 C         142.1874  136.9141  156.0092 C.3     1  UNL1        0.0919
     25 C         142.3232  135.4257  156.1370 C.ar    1  UNL1       -0.0146
     26 C         141.4632  134.5200  155.3063 C.ar    1  UNL1       -0.0038
     27 C         141.5991  133.0316  155.4341 C.ar    1  UNL1       -0.0003
     28 C         142.5948  132.4489  156.3927 C.ar    1  UNL1       -0.0000
     29 C         143.4548  133.3546  157.2234 C.ar    1  UNL1       -0.0003
     30 C         143.3190  134.8430  157.0956 C.ar    1  UNL1       -0.0038
@<TRIPOS>BOND
     1     5     6    1
     2     6     7   am
     3     7     8    2
     4     7     9    1
     5     9     1    1
     6     1     2   am
     7     2     3    2
     8     2    18    1
     9    18    19   ar
    10    19    20   ar
    11    20    21   ar
    12    21    24    1
    13    24    25    1
    14    25    26   ar
    15    26    27   ar
    16    27    28   ar
    17    28    29   ar
    18    29    30   ar
    19    21    22   ar
    20     9    10    1
    21    10    11    1
    22    11    12    1
    23    12    13   ar
    24    13    14   ar
    25    14    15   ar
    26    15    16   ar
    27    16    17   ar
    28    17     6    1
    29    22    18   ar
    30    17    12   ar
    31    30    25   ar
    32     1     4    1
    33    22    23    1
@<TRIPOS>MOLECULE
*****
 30 33 0 0 0
SMALL
GASTEIGER

@<TRIPOS>ATOM
      1 N         144.1262  139.5085  159.0644 N.am    1  UNL1       -0.2893
      2 C         142.8920  138.7660  158.6457 C.2     1  UNL1        0.2822
      3 O         141.6038  138.9751  159.3852 O.2     1  UNL1       -0.2668
      4 H         144.9717  139.3713  158.5790 H       1  UNL1        0.1503
      5 C         144.4754  139.6212  164.0994 C.3     1  UNL1        0.1202
      6 N         144.2592  140.5204  162.9184 N.am    1  UNL1       -0.2528
      7 C         144.2597  139.8462  161.5785 C.2     1  UNL1        0.2511
      8 O         144.4763  138.3621  161.5967 O.2     1  UNL1       -0.2726
      9 C         144.0723  140.4600  160.2227 C.3     1  UNL1        0.1936
     10 C         143.8381  141.8996  159.8720 C.3     1  UNL1        0.2342
     11 O         143.7335  143.0808  160.7907 O.3     1  UNL1       -0.4719
     12 C         143.8372  143.1143  162.2867 C.ar    1  UNL1        0.1522
     13 C         143.6735  144.5081  162.8163 C.ar    1  UNL1        0.0382
     14 C         143.7439  144.7623  164.2929 C.ar    1  UNL1        0.0032
     15 C         143.9779  143.6228  165.2399 C.ar    1  UNL1        0.0015
     16 C         144.1415  142.2290  164.7103 C.ar    1  UNL1        0.0180
     17 C         144.0712  141.9748  163.2337 C.ar    1  UNL1        0.0881
     18 C         142.9459  137.8145  157.4873 C.ar    1  UNL1        0.2167
     19 N         143.6536  138.0491  156.1858 N.ar    1  UNL1       -0.1245
     20 N         143.4467  136.8409  155.3212 N.ar    1  UNL1       -0.1331
     21 C         142.6110  135.8596  156.0885 C.ar    1  UNL1        0.1445
     22 N         142.3015  136.4612  157.4273 N.ar    1  UNL1       -0.3206
     23 H         141.7689  136.0417  158.1411 H       1  UNL1        0.1687
     24 C         142.1634  134.5129  155.6024 C.3     1  UNL1        0.0919
     25 C         143.0591  133.3208  155.7657 C.ar    1  UNL1       -0.0146
     26 C         143.0394  132.2224  154.7445 C.ar    1  UNL1       -0.0038
     27 C         143.9350  131.0302  154.9078 C.ar    1  UNL1       -0.0003
     28 C         144.8504  130.9366  156.0924 C.ar    1  UNL1       -0.0000
     29 C         144.8702  132.0350  157.1136 C.ar    1  UNL1       -0.0003
     30 C         143.9745  133.2272  156.9503 C.ar    1  UNL1       -0.0038
@<TRIPOS>BOND
     1     5     6    1
     2     6     7   am
     3     7     8    2
     4     7     9    1
     5     9     1    1
     6     1     2   am
     7     2     3    2
     8     2    18    1
     9    18    19   ar
    10    19    20   ar
    11    20    21   ar
    12    21    24    1
    13    24    25    1
    14    25    26   ar
    15    26    27   ar
    16    27    28   ar
    17    28    29   ar
    18    29    30   ar
    19    21    22   ar
    20     9    10    1
    21    10    11    1
    22    11    12    1
    23    12    13   ar
    24    13    14   ar
    25    14    15   ar
    26    15    16   ar
    27    16    17   ar
    28    17     6    1
    29    22    18   ar
    30    17    12   ar
    31    30    25   ar
    32     1     4    1
    33    22    23    1
@<TRIPOS>MOLECULE
*****
 30 33 0 0 0
SMALL
GASTEIGER

@<TRIPOS>ATOM
      1 N         140.5085  139.8453  159.3259 N.am    1  UNL1       -0.2893
      2 C         139.6364  139.5581  160.5120 C.2     1  UNL1        0.2822
      3 O         139.2105  138.1503  160.8065 O.2     1  UNL1       -0.2668
      4 H         140.7881  140.7693  159.1326 H       1  UNL1        0.1503
      5 C         138.9907  137.1106  155.3631 C.3     1  UNL1        0.1202
      6 N         140.1422  137.2605  156.3126 N.am    1  UNL1       -0.2528
      7 C         139.9925  138.3304  157.3533 C.2     1  UNL1        0.2511
      8 O         138.7112  139.1088  157.3069 O.2     1  UNL1       -0.2726
      9 C         140.9548  138.7246  158.4343 C.3     1  UNL1        0.1936
     10 C         142.3044  138.1465  158.7416 C.3     1  UNL1        0.2342
     11 O         143.0249  137.0312  158.0438 O.3     1  UNL1       -0.4719
     12 C         142.5740  136.2187  156.8663 C.ar    1  UNL1        0.1522
     13 C         143.6020  135.1972  156.4794 C.ar    1  UNL1        0.0382
     14 C         143.3470  134.2777  155.3220 C.ar    1  UNL1        0.0032
     15 C         142.0640  134.3798  154.5516 C.ar    1  UNL1        0.0015
     16 C         141.0360  135.4013  154.9385 C.ar    1  UNL1        0.0180
     17 C         141.2910  136.3207  156.0958 C.ar    1  UNL1        0.0881
     18 C         139.1901  140.6788  161.4036 C.ar    1  UNL1        0.2167
     19 N         137.7921  141.2100  161.5195 N.ar    1  UNL1       -0.1245
     20 N         137.8014  142.3245  162.5234 N.ar    1  UNL1       -0.1331
     21 C         139.2052  142.4821  163.0280 C.ar    1  UNL1        0.1445
     22 N         140.0635  141.4650  162.3360 N.ar    1  UNL1       -0.3206
     23 H         141.0303  141.3361  162.4701 H       1  UNL1        0.1687
     24 C         139.6693  143.4813  164.0459 C.3     1  UNL1        0.0919
     25 C         141.1366  143.6899  164.2775 C.ar    1  UNL1       -0.0146
     26 C         141.8386  144.8522  163.6403 C.ar    1  UNL1       -0.0038
     27 C         143.3059  145.0608  163.8718 C.ar    1  UNL1       -0.0003
     28 C         144.0711  144.1071  164.7405 C.ar    1  UNL1       -0.0000
     29 C         143.3691  142.9447  165.3777 C.ar    1  UNL1       -0.0003
     30 C         141.9018  142.7361  165.1462 C.ar    1  UNL1       -0.0038
@<TRIPOS>BOND
     1     5     6    1
     2     6     7   am
     3     7     8    2
     4     7     9    1
     5     9     1    1
     6     1     2   am
     7     2     3    2
     8     2    18    1
     9    18    19   ar
    10    19    20   ar
    11    20    21   ar
    12    21    24    1
    13    24    25    1
    14    25    26   ar
    15    26    27   ar
    16    27    28   ar
    17    28    29   ar
    18    29    30   ar
    19    21    22   ar
    20     9    10    1
    21    10    11    1
    22    11    12    1
    23    12    13   ar
    24    13    14   ar
    25    14    15   ar
    26    15    16   ar
    27    16    17   ar
    28    17     6    1
    29    22    18   ar
    30    17    12   ar
    31    30    25   ar
    32     1     4    1
    33    22    23    1
@<TRIPOS>MOLECULE
*****
 30 33 0 0 0
SMALL
GASTEIGER

@<TRIPOS>ATOM
      1 N         140.3788  138.0638  161.9170 N.am    1  UNL1       -0.2893
      2 C         140.5062  139.0861  160.8267 C.2     1  UNL1        0.2822
      3 O         140.7468  140.5257  161.1728 O.2     1  UNL1       -0.2668
      4 H         140.2209  137.1189  161.6898 H       1  UNL1        0.1503
      5 C         143.8020  138.8162  165.5504 C.3     1  UNL1        0.1202
      6 N         142.3248  138.8839  165.2986 N.am    1  UNL1       -0.2528
      7 C         141.8831  138.5137  163.9138 C.2     1  UNL1        0.2511
      8 O         142.9768  138.1248  162.9639 O.2     1  UNL1       -0.2726
      9 C         140.4921  138.4811  163.3533 C.3     1  UNL1        0.1936
     10 C         139.1994  138.8105  164.0392 C.3     1  UNL1        0.2342
     11 O         138.9785  139.2539  165.4550 O.3     1  UNL1       -0.4719
     12 C         139.9956  139.4775  166.5346 C.ar    1  UNL1        0.1522
     13 C         139.3490  139.9212  167.8133 C.ar    1  UNL1        0.0382
     14 C         140.1917  140.2002  169.0224 C.ar    1  UNL1        0.0032
     15 C         141.6810  140.0355  168.9528 C.ar    1  UNL1        0.0015
     16 C         142.3276  139.5918  167.6741 C.ar    1  UNL1        0.0180
     17 C         141.4849  139.3128  166.4650 C.ar    1  UNL1        0.0881
     18 C         140.3929  138.6688  159.3904 C.ar    1  UNL1        0.2167
     19 N         139.1734  138.8015  158.5272 N.ar    1  UNL1       -0.1245
     20 N         139.5060  138.2603  157.1684 N.ar    1  UNL1       -0.1331
     21 C         140.9312  137.7930  157.1917 C.ar    1  UNL1        0.1445
     22 N         141.4794  138.0455  158.5650 N.ar    1  UNL1       -0.3206
     23 H         142.3920  137.8384  158.8709 H       1  UNL1        0.1687
     24 C         141.6773  137.1808  156.0435 C.3     1  UNL1        0.0919
     25 C         141.9657  135.7088  156.0360 C.ar    1  UNL1       -0.0146
     26 C         141.1582  134.7907  155.1670 C.ar    1  UNL1       -0.0038
     27 C         141.4467  133.3187  155.1595 C.ar    1  UNL1       -0.0003
     28 C         142.5427  132.7648  156.0209 C.ar    1  UNL1       -0.0000
     29 C         143.3501  133.6829  156.8899 C.ar    1  UNL1       -0.0003
     30 C         143.0617  135.1549  156.8974 C.ar    1  UNL1       -0.0038
@<TRIPOS>BOND
     1     5     6    1
     2     6     7   am
     3     7     8    2
     4     7     9    1
     5     9     1    1
     6     1     2   am
     7     2     3    2
     8     2    18    1
     9    18    19   ar
    10    19    20   ar
    11    20    21   ar
    12    21    24    1
    13    24    25    1
    14    25    26   ar
    15    26    27   ar
    16    27    28   ar
    17    28    29   ar
    18    29    30   ar
    19    21    22   ar
    20     9    10    1
    21    10    11    1
    22    11    12    1
    23    12    13   ar
    24    13    14   ar
    25    14    15   ar
    26    15    16   ar
    27    16    17   ar
    28    17     6    1
    29    22    18   ar
    30    17    12   ar
    31    30    25   ar
    32     1     4    1
    33    22    23    1
