@<TRIPOS>MOLECULE
*****
 38 40 0 0 0
SMALL
GASTEIGER

@<TRIPOS>ATOM
      1 C         139.8269  144.0031  157.8768 C.3     1  UNL1        0.0577
      2 C         140.0823  145.3476  158.4910 C.3     1  UNL1        0.0177
      3 C         140.2609  145.4725  159.9750 C.3     1  UNL1        0.0211
      4 C         140.1843  144.2530  160.8450 C.3     1  UNL1        0.0752
      5 C         139.9290  142.9085  160.2308 C.3     1  UNL1        0.0630
      6 C         139.7503  142.7836  158.7468 C.3     1  UNL1        0.0213
      7 N         140.3630  144.3779  162.3290 N.am    1  UNL1       -0.3045
      8 C         139.1809  144.6707  163.2048 C.2     1  UNL1        0.2425
      9 O         137.8201  144.8385  162.5964 O.2     1  UNL1       -0.2733
     10 H         141.2561  144.2678  162.7283 H       1  UNL1        0.1494
     11 C         139.3596  144.7956  164.6888 C.3     1  UNL1        0.1759
     12 N         139.7169  143.5891  165.5054 N.am    1  UNL1       -0.2931
     13 C         141.1161  143.0495  165.4736 C.2     1  UNL1        0.2462
     14 O         142.1580  143.7164  164.6252 O.2     1  UNL1       -0.2701
     15 H         139.0331  143.1514  166.0623 H       1  UNL1        0.1502
     16 C         141.4734  141.8430  166.2901 C.ar    1  UNL1        0.0533
     17 C         142.5817  140.9363  165.8432 C.ar    1  UNL1        0.0045
     18 C         142.9390  139.7298  166.6599 C.ar    1  UNL1        0.0001
     19 C         142.1881  139.4301  167.9233 C.ar    1  UNL1        0.0039
     20 C         141.0799  140.3368  168.3701 C.ar    1  UNL1        0.0716
     21 C         140.7225  141.5432  167.5536 C.ar    1  UNL1        0.0084
     22 C         140.3289  140.0371  169.6335 C.3     1  UNL1        0.4186
     23 F         139.5780  139.7373  170.8970 F       1  UNL1       -0.1659
     24 F         141.6113  139.6368  170.3008 F       1  UNL1       -0.1659
     25 F         139.0466  140.4373  168.9663 F       1  UNL1       -0.1659
     26 N         139.6483  143.8782  156.3928 N.3     1  UNL1       -0.2741
     27 C         140.6638  143.1369  155.5748 C.3     1  UNL1        0.0896
     28 C         138.5241  145.9030  155.2152 C.3     1  UNL1        0.0173
     29 C         138.4540  144.4946  155.7266 C.3     1  UNL1        0.0576
     30 C         137.1895  143.7025  155.5718 C.3     1  UNL1        0.0173
     31 C         139.8523  141.6889  161.1008 C.3     1  UNL1        0.2070
     32 O         138.8255  141.6088  162.1913 O.3     1  UNL1       -0.4754
     33 C         138.9874  140.6141  163.3023 C.ar    1  UNL1        0.1386
     34 C         138.0790  140.6672  164.4947 C.ar    1  UNL1        0.0369
     35 C         138.2409  139.6725  165.6057 C.ar    1  UNL1        0.0031
     36 C         139.3112  138.6247  165.5243 C.ar    1  UNL1        0.0002
     37 C         140.2196  138.5717  164.3319 C.ar    1  UNL1        0.0031
     38 C         140.0577  139.5663  163.2209 C.ar    1  UNL1        0.0369
@<TRIPOS>BOND
     1    28    29    1
     2    29    30    1
     3    29    26    1
     4    26    27    1
     5     1    26    1
     6     1     2    1
     7     2     3    1
     8     3     4    1
     9     4     7    1
    10     7     8   am
    11     8     9    2
    12     8    11    1
    13    11    12    1
    14    12    13   am
    15    13    14    2
    16    13    16    1
    17    16    17   ar
    18    17    18   ar
    19    18    19   ar
    20    19    20   ar
    21    20    22    1
    22    22    23    1
    23    22    24    1
    24    22    25    1
    25    20    21   ar
    26     4     5    1
    27     5    31    1
    28    31    32    1
    29    32    33    1
    30    33    34   ar
    31    34    35   ar
    32    35    36   ar
    33    36    37   ar
    34    37    38   ar
    35     5     6    1
    36     6     1    1
    37    21    16   ar
    38    38    33   ar
    39     7    10    1
    40    12    15    1
@<TRIPOS>MOLECULE
*****
 38 40 0 0 0
SMALL
GASTEIGER

@<TRIPOS>ATOM
      1 C         145.0454  142.1510  155.9704 C.3     1  UNL1        0.0577
      2 C         143.8157  142.7768  155.3821 C.3     1  UNL1        0.0177
      3 C         142.7409  143.3092  156.2829 C.3     1  UNL1        0.0211
      4 C         142.8958  143.2158  157.7719 C.3     1  UNL1        0.0752
      5 C         144.1255  142.5899  158.3602 C.3     1  UNL1        0.0630
      6 C         145.2003  142.0575  157.4594 C.3     1  UNL1        0.0213
      7 N         141.8210  143.7482  158.6726 N.am    1  UNL1       -0.3045
      8 C         141.5952  145.2273  158.7779 C.2     1  UNL1        0.2425
      9 O         142.4442  146.1741  157.9823 O.2     1  UNL1       -0.2733
     10 H         141.2638  143.1268  159.1948 H       1  UNL1        0.1494
     11 C         140.5204  145.7597  159.6786 C.3     1  UNL1        0.1759
     12 N         140.5665  145.4752  161.1507 N.am    1  UNL1       -0.2931
     13 C         139.7329  144.3695  161.7273 C.2     1  UNL1        0.2462
     14 O         138.8532  143.5483  160.8319 O.2     1  UNL1       -0.2701
     15 H         141.1439  146.0142  161.7384 H       1  UNL1        0.1502
     16 C         139.7789  144.0850  163.1994 C.ar    1  UNL1        0.0533
     17 C         138.9081  144.8627  164.1412 C.ar    1  UNL1        0.0045
     18 C         138.9542  144.5781  165.6133 C.ar    1  UNL1        0.0001
     19 C         139.8710  143.5159  166.1435 C.ar    1  UNL1        0.0039
     20 C         140.7418  142.7383  165.2017 C.ar    1  UNL1        0.0716
     21 C         140.6958  143.0228  163.7296 C.ar    1  UNL1        0.0084
     22 C         141.6587  141.6761  165.7319 C.3     1  UNL1        0.4186
     23 F         142.5755  140.6138  166.2621 F       1  UNL1       -0.1659
     24 F         141.6305  140.9869  164.3999 F       1  UNL1       -0.1659
     25 F         141.6868  142.3653  167.0638 F       1  UNL1       -0.1659
     26 N         146.1202  141.6185  155.0696 N.3     1  UNL1       -0.2741
     27 C         145.9019  140.3403  154.3158 C.3     1  UNL1        0.0896
     28 C         147.4271  143.7240  154.2892 C.3     1  UNL1        0.0173
     29 C         147.4133  142.3644  154.9227 C.3     1  UNL1        0.0576
     30 C         148.6926  141.7507  155.4093 C.3     1  UNL1        0.0173
     31 C         144.2805  142.4964  159.8493 C.3     1  UNL1        0.2070
     32 O         143.7711  143.6009  160.7271 O.3     1  UNL1       -0.4754
     33 C         144.0453  143.5740  162.2016 C.ar    1  UNL1        0.1386
     34 C         143.6760  144.7512  163.0548 C.ar    1  UNL1        0.0369
     35 C         143.9502  144.7242  164.5292 C.ar    1  UNL1        0.0031
     36 C         144.5938  143.5202  165.1505 C.ar    1  UNL1        0.0002
     37 C         144.9631  142.3430  164.2974 C.ar    1  UNL1        0.0031
     38 C         144.6889  142.3700  162.8229 C.ar    1  UNL1        0.0369
@<TRIPOS>BOND
     1    28    29    1
     2    29    30    1
     3    29    26    1
     4    26    27    1
     5     1    26    1
     6     1     2    1
     7     2     3    1
     8     3     4    1
     9     4     7    1
    10     7     8   am
    11     8     9    2
    12     8    11    1
    13    11    12    1
    14    12    13   am
    15    13    14    2
    16    13    16    1
    17    16    17   ar
    18    17    18   ar
    19    18    19   ar
    20    19    20   ar
    21    20    22    1
    22    22    23    1
    23    22    24    1
    24    22    25    1
    25    20    21   ar
    26     4     5    1
    27     5    31    1
    28    31    32    1
    29    32    33    1
    30    33    34   ar
    31    34    35   ar
    32    35    36   ar
    33    36    37   ar
    34    37    38   ar
    35     5     6    1
    36     6     1    1
    37    21    16   ar
    38    38    33   ar
    39     7    10    1
    40    12    15    1
@<TRIPOS>MOLECULE
*****
 38 40 0 0 0
SMALL
GASTEIGER

@<TRIPOS>ATOM
      1 C         142.1101  137.2408  157.3692 C.3     1  UNL1        0.0577
      2 C         140.7128  137.5864  156.9473 C.3     1  UNL1        0.0177
      3 C         139.8685  138.4788  157.8079 C.3     1  UNL1        0.0211
      4 C         140.4215  139.0257  159.0905 C.3     1  UNL1        0.0752
      5 C         141.8188  138.6801  159.5124 C.3     1  UNL1        0.0630
      6 C         142.6631  137.7876  158.6518 C.3     1  UNL1        0.0213
      7 N         139.5772  139.9182  159.9511 N.am    1  UNL1       -0.3045
      8 C         138.6369  139.3207  160.9554 C.2     1  UNL1        0.2425
      9 O         138.5408  137.8306  161.0991 O.2     1  UNL1       -0.2733
     10 H         139.6403  140.8961  159.8568 H       1  UNL1        0.1494
     11 C         137.7926  140.2132  161.8160 C.3     1  UNL1        0.1759
     12 N         138.4014  140.9125  162.9952 N.am    1  UNL1       -0.2931
     13 C         138.7305  140.1395  164.2378 C.2     1  UNL1        0.2462
     14 O         138.4508  138.6671  164.3012 O.2     1  UNL1       -0.2701
     15 H         138.5849  141.8789  162.9535 H       1  UNL1        0.1502
     16 C         139.3392  140.8387  165.4170 C.ar    1  UNL1        0.0533
     17 C         139.7628  142.2731  165.3018 C.ar    1  UNL1        0.0045
     18 C         140.3716  142.9723  166.4810 C.ar    1  UNL1        0.0001
     19 C         140.5567  142.2372  167.7753 C.ar    1  UNL1        0.0039
     20 C         140.1332  140.8029  167.8905 C.ar    1  UNL1        0.0716
     21 C         139.5244  140.1036  166.7114 C.ar    1  UNL1        0.0084
     22 C         140.3183  140.0678  169.1848 C.3     1  UNL1        0.4186
     23 F         140.5035  139.3327  170.4792 F       1  UNL1       -0.1659
     24 F         141.8037  140.0745  168.9761 F       1  UNL1       -0.1659
     25 F         138.8330  140.0611  169.3935 F       1  UNL1       -0.1659
     26 N         142.9544  136.3483  156.5086 N.3     1  UNL1       -0.2741
     27 C         144.0205  136.9392  155.6345 C.3     1  UNL1        0.0896
     28 C         143.4765  134.0041  157.4995 C.3     1  UNL1        0.0173
     29 C         142.7325  134.8649  156.5221 C.3     1  UNL1        0.0576
     30 C         141.7666  134.2422  155.5580 C.3     1  UNL1        0.0173
     31 C         142.3719  139.2270  160.7951 C.3     1  UNL1        0.2070
     32 O         141.4862  139.3571  161.9986 O.3     1  UNL1       -0.4754
     33 C         142.0913  139.4678  163.3667 C.ar    1  UNL1        0.1386
     34 C         142.7514  140.7453  163.7937 C.ar    1  UNL1        0.0369
     35 C         143.3565  140.8560  165.1617 C.ar    1  UNL1        0.0031
     36 C         143.3015  139.6893  166.1028 C.ar    1  UNL1        0.0002
     37 C         142.6415  138.4118  165.6759 C.ar    1  UNL1        0.0031
     38 C         142.0364  138.3011  164.3078 C.ar    1  UNL1        0.0369
@<TRIPOS>BOND
     1    28    29    1
     2    29    30    1
     3    29    26    1
     4    26    27    1
     5     1    26    1
     6     1     2    1
     7     2     3    1
     8     3     4    1
     9     4     7    1
    10     7     8   am
    11     8     9    2
    12     8    11    1
    13    11    12    1
    14    12    13   am
    15    13    14    2
    16    13    16    1
    17    16    17   ar
    18    17    18   ar
    19    18    19   ar
    20    19    20   ar
    21    20    22    1
    22    22    23    1
    23    22    24    1
    24    22    25    1
    25    20    21   ar
    26     4     5    1
    27     5    31    1
    28    31    32    1
    29    32    33    1
    30    33    34   ar
    31    34    35   ar
    32    35    36   ar
    33    36    37   ar
    34    37    38   ar
    35     5     6    1
    36     6     1    1
    37    21    16   ar
    38    38    33   ar
    39     7    10    1
    40    12    15    1
@<TRIPOS>MOLECULE
*****
 38 40 0 0 0
SMALL
GASTEIGER

@<TRIPOS>ATOM
      1 C         139.2034  143.6910  157.8135 C.3     1  UNL1        0.0577
      2 C         140.1061  144.8656  158.0486 C.3     1  UNL1        0.0177
      3 C         140.6516  145.1295  159.4207 C.3     1  UNL1        0.0211
      4 C         140.2944  144.2189  160.5578 C.3     1  UNL1        0.0752
      5 C         139.3917  143.0442  160.3227 C.3     1  UNL1        0.0630
      6 C         138.8462  142.7803  158.9506 C.3     1  UNL1        0.0213
      7 N         140.8399  144.4828  161.9299 N.am    1  UNL1       -0.3045
      8 C         142.3139  144.3718  162.1852 C.2     1  UNL1        0.2425
      9 O         143.2424  143.9969  161.0683 O.2     1  UNL1       -0.2733
     10 H         140.2306  144.7289  162.6630 H       1  UNL1        0.1494
     11 C         142.8594  144.6358  163.5573 C.3     1  UNL1        0.1759
     12 N         142.8068  143.5630  164.6045 N.am    1  UNL1       -0.2931
     13 C         141.5041  143.2243  165.2665 C.2     1  UNL1        0.2462
     14 O         140.2540  143.9584  164.8814 O.2     1  UNL1       -0.2701
     15 H         143.6273  143.0812  164.8572 H       1  UNL1        0.1502
     16 C         141.4515  142.1516  166.3136 C.ar    1  UNL1        0.0533
     17 C         140.4989  142.2742  167.4657 C.ar    1  UNL1        0.0045
     18 C         140.4463  141.2014  168.5128 C.ar    1  UNL1        0.0001
     19 C         141.3464  140.0061  168.4078 C.ar    1  UNL1        0.0039
     20 C         142.2991  139.8835  167.2557 C.ar    1  UNL1        0.0716
     21 C         142.3517  140.9562  166.2086 C.ar    1  UNL1        0.0084
     22 C         143.1991  138.6882  167.1506 C.3     1  UNL1        0.4186
     23 F         144.0993  137.4928  167.0456 F       1  UNL1       -0.1659
     24 F         143.0474  138.4445  168.6229 F       1  UNL1       -0.1659
     25 F         143.3509  138.9318  165.6784 F       1  UNL1       -0.1659
     26 N         138.6579  143.4270  156.4414 N.3     1  UNL1       -0.2741
     27 C         137.8304  142.2023  156.1861 C.3     1  UNL1        0.0896
     28 C         138.0061  145.5331  155.0668 C.3     1  UNL1        0.0173
     29 C         138.9399  144.3878  155.3246 C.3     1  UNL1        0.0576
     30 C         140.1556  144.2033  154.4655 C.3     1  UNL1        0.0173
     31 C         139.0345  142.1334  161.4599 C.3     1  UNL1        0.2070
     32 O         140.1173  141.5049  162.2860 O.3     1  UNL1       -0.4754
     33 C         139.7619  140.5509  163.3877 C.ar    1  UNL1        0.1386
     34 C         140.5263  139.2701  163.5462 C.ar    1  UNL1        0.0369
     35 C         140.1709  138.3161  164.6479 C.ar    1  UNL1        0.0031
     36 C         139.0513  138.6431  165.5910 C.ar    1  UNL1        0.0002
     37 C         138.2870  139.9239  165.4325 C.ar    1  UNL1        0.0031
     38 C         138.6423  140.8779  164.3308 C.ar    1  UNL1        0.0369
@<TRIPOS>BOND
     1    28    29    1
     2    29    30    1
     3    29    26    1
     4    26    27    1
     5     1    26    1
     6     1     2    1
     7     2     3    1
     8     3     4    1
     9     4     7    1
    10     7     8   am
    11     8     9    2
    12     8    11    1
    13    11    12    1
    14    12    13   am
    15    13    14    2
    16    13    16    1
    17    16    17   ar
    18    17    18   ar
    19    18    19   ar
    20    19    20   ar
    21    20    22    1
    22    22    23    1
    23    22    24    1
    24    22    25    1
    25    20    21   ar
    26     4     5    1
    27     5    31    1
    28    31    32    1
    29    32    33    1
    30    33    34   ar
    31    34    35   ar
    32    35    36   ar
    33    36    37   ar
    34    37    38   ar
    35     5     6    1
    36     6     1    1
    37    21    16   ar
    38    38    33   ar
    39     7    10    1
    40    12    15    1
@<TRIPOS>MOLECULE
*****
 38 40 0 0 0
SMALL
GASTEIGER

@<TRIPOS>ATOM
      1 C         144.3267  142.3102  157.9121 C.3     1  UNL1        0.0577
      2 C         143.3468  143.4269  157.7058 C.3     1  UNL1        0.0177
      3 C         142.4470  143.8520  158.8281 C.3     1  UNL1        0.0211
      4 C         142.5271  143.1605  160.1567 C.3     1  UNL1        0.0752
      5 C         143.5071  142.0437  160.3630 C.3     1  UNL1        0.0630
      6 C         144.4069  141.6186  159.2407 C.3     1  UNL1        0.0213
      7 N         141.6274  143.5856  161.2791 N.am    1  UNL1       -0.3045
      8 C         142.1637  144.4433  162.3866 C.2     1  UNL1        0.2425
      9 O         143.6000  144.8759  162.3718 O.2     1  UNL1       -0.2733
     10 H         140.6847  143.3017  161.2888 H       1  UNL1        0.1494
     11 C         141.2639  144.8684  163.5089 C.3     1  UNL1        0.1759
     12 N         141.0681  143.9705  164.6944 N.am    1  UNL1       -0.2931
     13 C         140.1342  142.8002  164.6027 C.2     1  UNL1        0.2462
     14 O         139.3962  142.5280  163.3254 O.2     1  UNL1       -0.2701
     15 H         141.5525  144.1492  165.5327 H       1  UNL1        0.1502
     16 C         139.9383  141.9023  165.7881 C.ar    1  UNL1        0.0533
     17 C         140.5797  142.2424  167.1007 C.ar    1  UNL1        0.0045
     18 C         140.3838  141.3443  168.2862 C.ar    1  UNL1        0.0001
     19 C         139.5466  140.1063  168.1590 C.ar    1  UNL1        0.0039
     20 C         138.9052  139.7662  166.8464 C.ar    1  UNL1        0.0716
     21 C         139.1010  140.6642  165.6610 C.ar    1  UNL1        0.0084
     22 C         138.0679  138.5282  166.7192 C.3     1  UNL1        0.4186
     23 F         137.2306  137.2901  166.5920 F       1  UNL1       -0.1659
     24 F         137.4921  138.7777  168.0816 F       1  UNL1       -0.1659
     25 F         138.6437  138.2787  165.3568 F       1  UNL1       -0.1659
     26 N         145.2265  141.8850  156.7898 N.3     1  UNL1       -0.2741
     27 C         146.5918  142.4908  156.6525 C.3     1  UNL1        0.0896
     28 C         143.3281  140.4106  155.8039 C.3     1  UNL1        0.0173
     29 C         144.7610  140.8541  155.8047 C.3     1  UNL1        0.0576
     30 C         145.7285  140.2665  154.8203 C.3     1  UNL1        0.0173
     31 C         143.5873  141.3521  161.6917 C.3     1  UNL1        0.2070
     32 O         142.3436  140.8097  162.3311 O.3     1  UNL1       -0.4754
     33 C         142.4256  140.1064  163.6536 C.ar    1  UNL1        0.1386
     34 C         141.7669  138.7711  163.8350 C.ar    1  UNL1        0.0369
     35 C         141.8490  138.0679  165.1574 C.ar    1  UNL1        0.0031
     36 C         142.5898  138.7000  166.2983 C.ar    1  UNL1        0.0002
     37 C         143.2484  140.0353  166.1169 C.ar    1  UNL1        0.0031
     38 C         143.1664  140.7385  164.7945 C.ar    1  UNL1        0.0369
@<TRIPOS>BOND
     1    28    29    1
     2    29    30    1
     3    29    26    1
     4    26    27    1
     5     1    26    1
     6     1     2    1
     7     2     3    1
     8     3     4    1
     9     4     7    1
    10     7     8   am
    11     8     9    2
    12     8    11    1
    13    11    12    1
    14    12    13   am
    15    13    14    2
    16    13    16    1
    17    16    17   ar
    18    17    18   ar
    19    18    19   ar
    20    19    20   ar
    21    20    22    1
    22    22    23    1
    23    22    24    1
    24    22    25    1
    25    20    21   ar
    26     4     5    1
    27     5    31    1
    28    31    32    1
    29    32    33    1
    30    33    34   ar
    31    34    35   ar
    32    35    36   ar
    33    36    37   ar
    34    37    38   ar
    35     5     6    1
    36     6     1    1
    37    21    16   ar
    38    38    33   ar
    39     7    10    1
    40    12    15    1
@<TRIPOS>MOLECULE
*****
 38 40 0 0 0
SMALL
GASTEIGER

@<TRIPOS>ATOM
      1 C         139.9701  145.2289  156.8140 C.3     1  UNL1        0.0577
      2 C         141.2484  145.8844  157.2454 C.3     1  UNL1        0.0177
      3 C         141.9160  145.4600  158.5199 C.3     1  UNL1        0.0211
      4 C         141.3052  144.3800  159.3629 C.3     1  UNL1        0.0752
      5 C         140.0270  143.7245  158.9314 C.3     1  UNL1        0.0630
      6 C         139.3594  144.1490  157.6569 C.3     1  UNL1        0.0213
      7 N         141.9728  143.9556  160.6373 N.am    1  UNL1       -0.3045
      8 C         143.1205  142.9907  160.5975 C.2     1  UNL1        0.2425
      9 O         143.6008  142.4502  159.2832 O.2     1  UNL1       -0.2733
     10 H         141.6576  144.3103  161.4999 H       1  UNL1        0.1494
     11 C         143.7881  142.5663  161.8720 C.3     1  UNL1        0.1759
     12 N         142.9910  141.8872  162.9461 N.am    1  UNL1       -0.2931
     13 C         142.2258  142.7059  163.9431 C.2     1  UNL1        0.2462
     14 O         142.2576  144.2036  163.8661 O.2     1  UNL1       -0.2701
     15 H         142.9701  140.9042  162.9966 H       1  UNL1        0.1502
     16 C         141.4287  142.0269  165.0172 C.ar    1  UNL1        0.0533
     17 C         141.3359  142.6397  166.3832 C.ar    1  UNL1        0.0045
     18 C         140.5388  141.9607  167.4572 C.ar    1  UNL1        0.0001
     19 C         139.8345  140.6689  167.1653 C.ar    1  UNL1        0.0039
     20 C         139.9273  140.0561  165.7994 C.ar    1  UNL1        0.0716
     21 C         140.7244  140.7351  164.7253 C.ar    1  UNL1        0.0084
     22 C         139.2230  138.7643  165.5075 C.3     1  UNL1        0.4186
     23 F         138.5188  137.4724  165.2155 F       1  UNL1       -0.1659
     24 F         140.5429  138.1068  165.2328 F       1  UNL1       -0.1659
     25 F         137.9031  139.4219  165.7821 F       1  UNL1       -0.1659
     26 N         139.3026  145.6534  155.5395 N.3     1  UNL1       -0.2741
     27 C         137.9628  145.0888  155.1705 C.3     1  UNL1        0.0896
     28 C         139.6327  148.0997  154.7294 C.3     1  UNL1        0.0173
     29 C         139.9748  146.6423  154.6340 C.3     1  UNL1        0.0576
     30 C         140.9892  146.1740  153.6331 C.3     1  UNL1        0.0173
     31 C         139.4161  142.6445  159.7744 C.3     1  UNL1        0.2070
     32 O         138.1432  142.9071  160.5231 O.3     1  UNL1       -0.4754
     33 C         138.1868  143.2239  161.9887 C.ar    1  UNL1        0.1386
     34 C         137.5659  142.2829  162.9781 C.ar    1  UNL1        0.0369
     35 C         137.6095  142.5997  164.4436 C.ar    1  UNL1        0.0031
     36 C         138.2739  143.8574  164.9196 C.ar    1  UNL1        0.0002
     37 C         138.8948  144.7984  163.9302 C.ar    1  UNL1        0.0031
     38 C         138.8512  144.4816  162.4647 C.ar    1  UNL1        0.0369
@<TRIPOS>BOND
     1    28    29    1
     2    29    30    1
     3    29    26    1
     4    26    27    1
     5     1    26    1
     6     1     2    1
     7     2     3    1
     8     3     4    1
     9     4     7    1
    10     7     8   am
    11     8     9    2
    12     8    11    1
    13    11    12    1
    14    12    13   am
    15    13    14    2
    16    13    16    1
    17    16    17   ar
    18    17    18   ar
    19    18    19   ar
    20    19    20   ar
    21    20    22    1
    22    22    23    1
    23    22    24    1
    24    22    25    1
    25    20    21   ar
    26     4     5    1
    27     5    31    1
    28    31    32    1
    29    32    33    1
    30    33    34   ar
    31    34    35   ar
    32    35    36   ar
    33    36    37   ar
    34    37    38   ar
    35     5     6    1
    36     6     1    1
    37    21    16   ar
    38    38    33   ar
    39     7    10    1
    40    12    15    1
@<TRIPOS>MOLECULE
*****
 38 40 0 0 0
SMALL
GASTEIGER

@<TRIPOS>ATOM
      1 C         138.3699  142.9146  157.5586 C.3     1  UNL1        0.0577
      2 C         139.4333  143.9724  157.5698 C.3     1  UNL1        0.0177
      3 C         140.2235  144.2284  158.8189 C.3     1  UNL1        0.0211
      4 C         139.9502  143.4266  160.0567 C.3     1  UNL1        0.0752
      5 C         138.8868  142.3688  160.0455 C.3     1  UNL1        0.0630
      6 C         138.0966  142.1128  158.7965 C.3     1  UNL1        0.0213
      7 N         140.7403  143.6825  161.3058 N.am    1  UNL1       -0.3045
      8 C         140.3354  144.7871  162.2363 C.2     1  UNL1        0.2425
      9 O         139.1403  145.6359  161.9177 O.2     1  UNL1       -0.2733
     10 H         141.5247  143.1255  161.5149 H       1  UNL1        0.1494
     11 C         141.1256  145.0431  163.4853 C.3     1  UNL1        0.1759
     12 N         141.5864  143.8925  164.3303 N.am    1  UNL1       -0.2931
     13 C         140.6456  143.2587  165.3117 C.2     1  UNL1        0.2462
     14 O         139.2441  143.7755  165.4482 O.2     1  UNL1       -0.2701
     15 H         142.5063  143.5534  164.2406 H       1  UNL1        0.1502
     16 C         141.1064  142.1082  166.1566 C.ar    1  UNL1        0.0533
     17 C         142.3148  141.3170  165.7518 C.ar    1  UNL1        0.0045
     18 C         142.7755  140.1664  166.5968 C.ar    1  UNL1        0.0001
     19 C         142.0280  139.8070  167.8465 C.ar    1  UNL1        0.0039
     20 C         140.8196  140.5982  168.2514 C.ar    1  UNL1        0.0716
     21 C         140.3588  141.7488  167.4065 C.ar    1  UNL1        0.0084
     22 C         140.0720  140.2389  169.5011 C.3     1  UNL1        0.4186
     23 F         139.3244  139.8795  170.7510 F       1  UNL1       -0.1659
     24 F         141.2896  140.5517  170.3194 F       1  UNL1       -0.1659
     25 F         138.8545  139.9261  168.6829 F       1  UNL1       -0.1659
     26 N         137.5798  142.6587  156.3095 N.3     1  UNL1       -0.2741
     27 C         137.2464  143.7936  155.3872 C.3     1  UNL1        0.0896
     28 C         138.1244  140.2223  155.5901 C.3     1  UNL1        0.0173
     29 C         137.1230  141.2678  155.9829 C.3     1  UNL1        0.0576
     30 C         135.6647  140.9223  156.0489 C.3     1  UNL1        0.0173
     31 C         138.6135  141.5669  161.2834 C.3     1  UNL1        0.2070
     32 O         139.7408  141.1951  162.2004 O.3     1  UNL1       -0.4754
     33 C         139.4930  140.2751  163.3590 C.ar    1  UNL1        0.1386
     34 C         138.3400  140.5282  164.2844 C.ar    1  UNL1        0.0369
     35 C         138.0923  139.6083  165.4429 C.ar    1  UNL1        0.0031
     36 C         138.9976  138.4352  165.6761 C.ar    1  UNL1        0.0002
     37 C         140.1506  138.1821  164.7507 C.ar    1  UNL1        0.0031
     38 C         140.3984  139.1021  163.5921 C.ar    1  UNL1        0.0369
@<TRIPOS>BOND
     1    28    29    1
     2    29    30    1
     3    29    26    1
     4    26    27    1
     5     1    26    1
     6     1     2    1
     7     2     3    1
     8     3     4    1
     9     4     7    1
    10     7     8   am
    11     8     9    2
    12     8    11    1
    13    11    12    1
    14    12    13   am
    15    13    14    2
    16    13    16    1
    17    16    17   ar
    18    17    18   ar
    19    18    19   ar
    20    19    20   ar
    21    20    22    1
    22    22    23    1
    23    22    24    1
    24    22    25    1
    25    20    21   ar
    26     4     5    1
    27     5    31    1
    28    31    32    1
    29    32    33    1
    30    33    34   ar
    31    34    35   ar
    32    35    36   ar
    33    36    37   ar
    34    37    38   ar
    35     5     6    1
    36     6     1    1
    37    21    16   ar
    38    38    33   ar
    39     7    10    1
    40    12    15    1
@<TRIPOS>MOLECULE
*****
 38 40 0 0 0
SMALL
GASTEIGER

@<TRIPOS>ATOM
      1 C         138.8770  139.5971  156.1372 C.3     1  UNL1        0.0577
      2 C         137.9239  140.7482  156.2662 C.3     1  UNL1        0.0177
      3 C         137.7694  141.4500  157.5829 C.3     1  UNL1        0.0211
      4 C         138.5680  141.0007  158.7705 C.3     1  UNL1        0.0752
      5 C         139.5210  139.8497  158.6415 C.3     1  UNL1        0.0630
      6 C         139.6755  139.1479  157.3248 C.3     1  UNL1        0.0213
      7 N         138.4134  141.7025  160.0871 N.am    1  UNL1       -0.3045
      8 C         139.1401  142.9900  160.3406 C.2     1  UNL1        0.2425
      9 O         140.0213  143.5758  159.2774 O.2     1  UNL1       -0.2733
     10 H         137.8351  141.3181  160.7850 H       1  UNL1        0.1494
     11 C         138.9856  143.6919  161.6572 C.3     1  UNL1        0.1759
     12 N         139.3422  142.9841  162.9308 N.am    1  UNL1       -0.2931
     13 C         138.3819  142.0055  163.5393 C.2     1  UNL1        0.2462
     14 O         137.0649  141.7347  162.8742 O.2     1  UNL1       -0.2701
     15 H         140.2066  143.1618  163.3673 H       1  UNL1        0.1502
     16 C         138.7385  141.2977  164.8128 C.ar    1  UNL1        0.0533
     17 C         139.7435  141.9000  165.7495 C.ar    1  UNL1        0.0045
     18 C         140.1001  141.1921  167.0230 C.ar    1  UNL1        0.0001
     19 C         139.4518  139.8821  167.3598 C.ar    1  UNL1        0.0039
     20 C         138.4468  139.2799  166.4231 C.ar    1  UNL1        0.0716
     21 C         138.0902  139.9876  165.1496 C.ar    1  UNL1        0.0084
     22 C         137.7985  137.9699  166.7599 C.3     1  UNL1        0.4186
     23 F         137.1501  136.6598  167.0968 F       1  UNL1       -0.1659
     24 F         137.2168  138.5771  168.0021 F       1  UNL1       -0.1659
     25 F         138.3801  137.3627  165.5178 F       1  UNL1       -0.1659
     26 N         139.0315  138.8953  154.8205 N.3     1  UNL1       -0.2741
     27 C         137.8983  138.8862  153.8379 C.3     1  UNL1        0.0896
     28 C         140.3770  136.7041  154.4485 C.3     1  UNL1        0.0173
     29 C         140.3193  138.2025  154.4865 C.3     1  UNL1        0.0576
     30 C         141.5495  139.0082  154.1904 C.3     1  UNL1        0.0173
     31 C         140.3196  139.4004  159.8291 C.3     1  UNL1        0.2070
     32 O         139.7258  139.4764  161.2044 O.3     1  UNL1       -0.4754
     33 C         140.5262  139.0317  162.3926 C.ar    1  UNL1        0.1386
     34 C         141.4837  139.9809  163.0498 C.ar    1  UNL1        0.0369
     35 C         142.2840  139.5362  164.2379 C.ar    1  UNL1        0.0031
     36 C         142.1268  138.1421  164.7688 C.ar    1  UNL1        0.0002
     37 C         141.1692  137.1928  164.1117 C.ar    1  UNL1        0.0031
     38 C         140.3689  137.6376  162.9236 C.ar    1  UNL1        0.0369
@<TRIPOS>BOND
     1    28    29    1
     2    29    30    1
     3    29    26    1
     4    26    27    1
     5     1    26    1
     6     1     2    1
     7     2     3    1
     8     3     4    1
     9     4     7    1
    10     7     8   am
    11     8     9    2
    12     8    11    1
    13    11    12    1
    14    12    13   am
    15    13    14    2
    16    13    16    1
    17    16    17   ar
    18    17    18   ar
    19    18    19   ar
    20    19    20   ar
    21    20    22    1
    22    22    23    1
    23    22    24    1
    24    22    25    1
    25    20    21   ar
    26     4     5    1
    27     5    31    1
    28    31    32    1
    29    32    33    1
    30    33    34   ar
    31    34    35   ar
    32    35    36   ar
    33    36    37   ar
    34    37    38   ar
    35     5     6    1
    36     6     1    1
    37    21    16   ar
    38    38    33   ar
    39     7    10    1
    40    12    15    1
@<TRIPOS>MOLECULE
*****
 38 40 0 0 0
SMALL
GASTEIGER

@<TRIPOS>ATOM
      1 C         140.1910  144.2028  156.7327 C.3     1  UNL1        0.0577
      2 C         141.2930  145.2016  156.9277 C.3     1  UNL1        0.0177
      3 C         141.7812  145.5193  158.3100 C.3     1  UNL1        0.0211
      4 C         141.1675  144.8383  159.4972 C.3     1  UNL1        0.0752
      5 C         140.0656  143.8395  159.3022 C.3     1  UNL1        0.0630
      6 C         139.5773  143.5218  157.9199 C.3     1  UNL1        0.0213
      7 N         141.6558  145.1561  160.8794 N.am    1  UNL1       -0.3045
      8 C         142.6908  144.2854  161.5279 C.2     1  UNL1        0.2425
      9 O         143.2376  143.0968  160.7941 O.2     1  UNL1       -0.2733
     10 H         141.2969  145.9362  161.3610 H       1  UNL1        0.1494
     11 C         143.1790  144.6032  162.9102 C.3     1  UNL1        0.1759
     12 N         142.8040  143.7163  164.0604 N.am    1  UNL1       -0.2931
     13 C         143.7563  142.6583  164.5332 C.2     1  UNL1        0.2462
     14 O         145.0837  142.4870  163.8558 O.2     1  UNL1       -0.2701
     15 H         141.9328  143.8287  164.5050 H       1  UNL1        0.1502
     16 C         143.3814  141.7715  165.6834 C.ar    1  UNL1        0.0533
     17 C         143.1816  140.3013  165.4629 C.ar    1  UNL1        0.0045
     18 C         142.8066  139.4145  166.6131 C.ar    1  UNL1        0.0001
     19 C         142.6314  139.9979  167.9838 C.ar    1  UNL1        0.0039
     20 C         142.8311  141.4681  168.2044 C.ar    1  UNL1        0.0716
     21 C         143.2061  142.3549  167.0542 C.ar    1  UNL1        0.0084
     22 C         142.6559  142.0515  169.5751 C.3     1  UNL1        0.4186
     23 F         142.4806  142.6350  170.9459 F       1  UNL1       -0.1659
     24 F         141.6543  143.0270  169.0318 F       1  UNL1       -0.1659
     25 F         143.6575  141.0760  170.1183 F       1  UNL1       -0.1659
     26 N         139.7028  143.8850  155.3504 N.3     1  UNL1       -0.2741
     27 C         140.4507  142.9032  154.4981 C.3     1  UNL1        0.0896
     28 C         138.1734  145.9776  155.1716 C.3     1  UNL1        0.0173
     29 C         138.4666  144.5490  154.8206 C.3     1  UNL1        0.0576
     30 C         137.5234  143.7844  153.9396 C.3     1  UNL1        0.0173
     31 C         139.4518  143.1585  160.4894 C.3     1  UNL1        0.2070
     32 O         138.9135  143.9747  161.6269 O.3     1  UNL1       -0.4754
     33 C         139.1948  143.5658  163.0425 C.ar    1  UNL1        0.1386
     34 C         139.4886  142.1305  163.3643 C.ar    1  UNL1        0.0369
     35 C         139.7699  141.7217  164.7798 C.ar    1  UNL1        0.0031
     36 C         139.7575  142.7482  165.8735 C.ar    1  UNL1        0.0002
     37 C         139.4638  144.1835  165.5517 C.ar    1  UNL1        0.0031
     38 C         139.1824  144.5923  164.1362 C.ar    1  UNL1        0.0369
@<TRIPOS>BOND
     1    28    29    1
     2    29    30    1
     3    29    26    1
     4    26    27    1
     5     1    26    1
     6     1     2    1
     7     2     3    1
     8     3     4    1
     9     4     7    1
    10     7     8   am
    11     8     9    2
    12     8    11    1
    13    11    12    1
    14    12    13   am
    15    13    14    2
    16    13    16    1
    17    16    17   ar
    18    17    18   ar
    19    18    19   ar
    20    19    20   ar
    21    20    22    1
    22    22    23    1
    23    22    24    1
    24    22    25    1
    25    20    21   ar
    26     4     5    1
    27     5    31    1
    28    31    32    1
    29    32    33    1
    30    33    34   ar
    31    34    35   ar
    32    35    36   ar
    33    36    37   ar
    34    37    38   ar
    35     5     6    1
    36     6     1    1
    37    21    16   ar
    38    38    33   ar
    39     7    10    1
    40    12    15    1
