@<TRIPOS>MOLECULE
*****
 29 31 0 0 0
SMALL
GASTEIGER

@<TRIPOS>ATOM
      1 C         140.7174  141.6633  167.6652 C.ar    1  UNL1        0.0519
      2 C         140.6409  141.9793  169.1295 C.ar    1  UNL1        0.0853
      3 C         139.7074  141.2087  170.0153 C.ar    1  UNL1        0.1045
      4 N         138.8504  140.1220  169.4368 N.ar    1  UNL1       -0.2436
      5 C         138.9269  139.8060  167.9724 C.ar    1  UNL1        0.0825
      6 C         138.0699  138.7194  167.3938 C.ar    1  UNL1        0.0191
      7 C         138.1464  138.4034  165.9295 C.ar    1  UNL1        0.0016
      8 C         139.0799  139.1741  165.0437 C.ar    1  UNL1        0.0031
      9 C         139.9369  140.2607  165.6223 C.ar    1  UNL1        0.0028
     10 C         139.8604  140.5767  167.0866 C.ar    1  UNL1        0.0309
     11 C         139.1565  138.8580  163.5794 C.ar    1  UNL1        0.0384
     12 C         140.2658  137.9952  163.0553 C.ar    1  UNL1        0.1022
     13 N         140.3423  137.6791  161.5909 N.ar    1  UNL1       -0.2224
     14 C         139.3094  138.2260  160.6507 C.ar    1  UNL1        0.1989
     15 N         138.2000  139.0890  161.1748 N.ar    1  UNL1       -0.2224
     16 C         138.1236  139.4049  162.6391 C.ar    1  UNL1        0.1022
     17 C         141.4979  143.0660  169.7081 C.2     1  UNL1        0.2455
     18 N         140.8619  144.2978  170.2811 N.am    1  UNL1       -0.3252
     19 O         142.9908  142.9209  169.7138 O.2     1  UNL1       -0.2703
     20 H         139.8821  144.3930  170.2774 H       1  UNL1        0.1453
     21 H         141.4244  145.0110  170.6608 H       1  UNL1        0.1453
     22 N         141.6510  142.4340  166.7794 N.pl3   1  UNL1       -0.3325
     23 H         141.3292  143.2320  166.3010 H       1  UNL1        0.1468
     24 C         143.0748  141.9887  166.6226 C.3     1  UNL1        0.0870
     25 C         143.5297  141.3709  165.3337 C.3     1  UNL1        0.0195
     26 C         143.3200  138.9119  166.1457 C.3     1  UNL1        0.0001
     27 C         143.2317  139.9291  165.0468 C.3     1  UNL1        0.0017
     28 C         144.2827  142.1949  164.3316 C.3     1  UNL1        0.0017
     29 C         145.6371  141.7523  163.8627 C.3     1  UNL1        0.0001
@<TRIPOS>BOND
     1    26    27    1
     2    27    25    1
     3    25    28    1
     4    28    29    1
     5    25    24    1
     6    24    22    1
     7    22     1    1
     8     1     2   ar
     9     2    17    1
    10    17    18   am
    11    17    19    2
    12     2     3   ar
    13     3     4   ar
    14     4     5   ar
    15     5     6   ar
    16     6     7   ar
    17     7     8   ar
    18     8    11    1
    19    11    12   ar
    20    12    13   ar
    21    13    14   ar
    22    14    15   ar
    23    15    16   ar
    24     8     9   ar
    25     9    10   ar
    26    10     1   ar
    27    10     5   ar
    28    16    11   ar
    29    22    23    1
    30    18    20    1
    31    18    21    1
@<TRIPOS>MOLECULE
*****
 29 31 0 0 0
SMALL
GASTEIGER

@<TRIPOS>ATOM
      1 C         141.2795  141.6659  167.8486 C.ar    1  UNL1        0.0519
      2 C         141.6390  141.6438  169.3047 C.ar    1  UNL1        0.0853
      3 C         140.8744  140.7683  170.2528 C.ar    1  UNL1        0.1045
      4 N         139.7504  139.9149  169.7448 N.ar    1  UNL1       -0.2436
      5 C         139.3908  139.9369  168.2886 C.ar    1  UNL1        0.0825
      6 C         138.2668  139.0834  167.7806 C.ar    1  UNL1        0.0191
      7 C         137.9073  139.1055  166.3245 C.ar    1  UNL1        0.0016
      8 C         138.6719  139.9810  165.3764 C.ar    1  UNL1        0.0031
      9 C         139.7960  140.8344  165.8844 C.ar    1  UNL1        0.0028
     10 C         140.1554  140.8124  167.3405 C.ar    1  UNL1        0.0309
     11 C         138.3124  140.0030  163.9203 C.ar    1  UNL1        0.0384
     12 C         138.5069  138.7750  163.0811 C.ar    1  UNL1        0.1022
     13 N         138.1474  138.7971  161.6249 N.ar    1  UNL1       -0.2224
     14 C         137.5934  140.0471  161.0080 C.ar    1  UNL1        0.1989
     15 N         137.3989  141.2751  161.8473 N.ar    1  UNL1       -0.2224
     16 C         137.7584  141.2530  163.3034 C.ar    1  UNL1        0.1022
     17 C         142.7631  142.4973  169.8127 C.2     1  UNL1        0.2455
     18 N         142.6663  143.1374  171.1658 N.am    1  UNL1       -0.3252
     19 O         143.9839  142.7106  168.9677 O.2     1  UNL1       -0.2703
     20 H         141.8650  142.9974  171.7204 H       1  UNL1        0.1453
     21 H         143.4040  143.6976  171.4993 H       1  UNL1        0.1453
     22 N         142.0441  142.5414  166.9005 N.pl3   1  UNL1       -0.3325
     23 H         141.8750  143.5110  166.8807 H       1  UNL1        0.1468
     24 C         143.0664  141.9394  165.9824 C.3     1  UNL1        0.0870
     25 C         143.6853  142.7729  164.8997 C.3     1  UNL1        0.0195
     26 C         145.5242  141.4609  163.6164 C.3     1  UNL1        0.0001
     27 C         145.1272  142.5782  164.5351 C.3     1  UNL1        0.0017
     28 C         142.8623  143.8011  164.1817 C.3     1  UNL1        0.0017
     29 C         143.4919  145.0872  163.7350 C.3     1  UNL1        0.0001
@<TRIPOS>BOND
     1    26    27    1
     2    27    25    1
     3    25    28    1
     4    28    29    1
     5    25    24    1
     6    24    22    1
     7    22     1    1
     8     1     2   ar
     9     2    17    1
    10    17    18   am
    11    17    19    2
    12     2     3   ar
    13     3     4   ar
    14     4     5   ar
    15     5     6   ar
    16     6     7   ar
    17     7     8   ar
    18     8    11    1
    19    11    12   ar
    20    12    13   ar
    21    13    14   ar
    22    14    15   ar
    23    15    16   ar
    24     8     9   ar
    25     9    10   ar
    26    10     1   ar
    27    10     5   ar
    28    16    11   ar
    29    22    23    1
    30    18    20    1
    31    18    21    1
@<TRIPOS>MOLECULE
*****
 29 31 0 0 0
SMALL
GASTEIGER

@<TRIPOS>ATOM
      1 C         140.6456  141.7647  167.8055 C.ar    1  UNL1        0.0519
      2 C         140.5321  142.0999  169.2631 C.ar    1  UNL1        0.0853
      3 C         139.6002  141.3193  170.1418 C.ar    1  UNL1        0.1045
      4 N         138.7819  140.2034  169.5629 N.ar    1  UNL1       -0.2436
      5 C         138.8954  139.8682  168.1052 C.ar    1  UNL1        0.0825
      6 C         138.0771  138.7523  167.5263 C.ar    1  UNL1        0.0191
      7 C         138.1907  138.4171  166.0687 C.ar    1  UNL1        0.0016
      8 C         139.1225  139.1978  165.1900 C.ar    1  UNL1        0.0031
      9 C         139.9409  140.3136  165.7689 C.ar    1  UNL1        0.0028
     10 C         139.8273  140.6488  167.2265 C.ar    1  UNL1        0.0309
     11 C         139.2361  138.8625  163.7323 C.ar    1  UNL1        0.0384
     12 C         140.3712  138.0120  163.2445 C.ar    1  UNL1        0.1022
     13 N         140.4848  137.6768  161.7868 N.ar    1  UNL1       -0.2224
     14 C         139.4631  138.1921  160.8170 C.ar    1  UNL1        0.1989
     15 N         138.3279  139.0427  161.3048 N.ar    1  UNL1       -0.2224
     16 C         138.2144  139.3779  162.7624 C.ar    1  UNL1        0.1022
     17 C         141.3504  143.2158  169.8421 C.2     1  UNL1        0.2455
     18 N         140.6796  144.4736  170.3091 N.am    1  UNL1       -0.3252
     19 O         142.8395  143.0740  169.9540 O.2     1  UNL1       -0.2703
     20 H         139.7023  144.5667  170.2356 H       1  UNL1        0.1453
     21 H         141.2167  145.2060  170.6891 H       1  UNL1        0.1453
     22 N         141.5775  142.5454  166.9267 N.pl3   1  UNL1       -0.3325
     23 H         141.2531  143.3450  166.4527 H       1  UNL1        0.1468
     24 C         143.0038  142.1078  166.7703 C.3     1  UNL1        0.0870
     25 C         143.6728  142.1965  165.4306 C.3     1  UNL1        0.0195
     26 C         143.7943  144.5139  164.2625 C.3     1  UNL1        0.0001
     27 C         144.4491  143.4252  165.0599 C.3     1  UNL1        0.0017
     28 C         143.5654  141.0564  164.4617 C.3     1  UNL1        0.0017
     29 C         143.4990  139.6459  164.9677 C.3     1  UNL1        0.0001
@<TRIPOS>BOND
     1    26    27    1
     2    27    25    1
     3    25    28    1
     4    28    29    1
     5    25    24    1
     6    24    22    1
     7    22     1    1
     8     1     2   ar
     9     2    17    1
    10    17    18   am
    11    17    19    2
    12     2     3   ar
    13     3     4   ar
    14     4     5   ar
    15     5     6   ar
    16     6     7   ar
    17     7     8   ar
    18     8    11    1
    19    11    12   ar
    20    12    13   ar
    21    13    14   ar
    22    14    15   ar
    23    15    16   ar
    24     8     9   ar
    25     9    10   ar
    26    10     1   ar
    27    10     5   ar
    28    16    11   ar
    29    22    23    1
    30    18    20    1
    31    18    21    1
@<TRIPOS>MOLECULE
*****
 29 31 0 0 0
SMALL
GASTEIGER

@<TRIPOS>ATOM
      1 C         141.4403  140.4788  168.2635 C.ar    1  UNL1        0.0519
      2 C         141.2832  140.7687  169.7267 C.ar    1  UNL1        0.0853
      3 C         139.9825  140.4758  170.4140 C.ar    1  UNL1        0.1045
      4 N         138.8388  139.8929  169.6379 N.ar    1  UNL1       -0.2436
      5 C         138.9959  139.6030  168.1745 C.ar    1  UNL1        0.0825
      6 C         137.8522  139.0202  167.3985 C.ar    1  UNL1        0.0191
      7 C         138.0093  138.7303  165.9352 C.ar    1  UNL1        0.0016
      8 C         139.3100  139.0232  165.2480 C.ar    1  UNL1        0.0031
      9 C         140.4537  139.6060  166.0240 C.ar    1  UNL1        0.0028
     10 C         140.2966  139.8959  167.4873 C.ar    1  UNL1        0.0309
     11 C         139.4671  138.7333  163.7846 C.ar    1  UNL1        0.0384
     12 C         138.4818  139.2895  162.7999 C.ar    1  UNL1        0.1022
     13 N         138.6389  138.9996  161.3365 N.ar    1  UNL1       -0.2224
     14 C         139.7812  138.1534  160.8580 C.ar    1  UNL1        0.1989
     15 N         140.7665  137.5971  161.8428 N.ar    1  UNL1       -0.2224
     16 C         140.6094  137.8870  163.3061 C.ar    1  UNL1        0.1022
     17 C         142.4269  141.3515  170.5029 C.2     1  UNL1        0.2455
     18 N         142.1837  142.4734  171.4683 N.am    1  UNL1       -0.3252
     19 O         143.8138  140.8124  170.3136 O.2     1  UNL1       -0.2703
     20 H         141.2734  142.8273  171.5925 H       1  UNL1        0.1453
     21 H         142.9343  142.8560  171.9777 H       1  UNL1        0.1453
     22 N         142.7411  140.7717  167.5762 N.pl3   1  UNL1       -0.3325
     23 H         143.4299  140.0717  167.5074 H       1  UNL1        0.1468
     24 C         142.9922  142.1311  166.9940 C.3     1  UNL1        0.0870
     25 C         142.8732  142.3469  165.5144 C.3     1  UNL1        0.0195
     26 C         143.6252  140.3081  164.0902 C.3     1  UNL1        0.0001
     27 C         143.8577  141.7062  164.5814 C.3     1  UNL1        0.0017
     28 C         141.7697  143.2033  164.9677 C.3     1  UNL1        0.0017
     29 C         140.4293  143.2194  165.6407 C.3     1  UNL1        0.0001
@<TRIPOS>BOND
     1    26    27    1
     2    27    25    1
     3    25    28    1
     4    28    29    1
     5    25    24    1
     6    24    22    1
     7    22     1    1
     8     1     2   ar
     9     2    17    1
    10    17    18   am
    11    17    19    2
    12     2     3   ar
    13     3     4   ar
    14     4     5   ar
    15     5     6   ar
    16     6     7   ar
    17     7     8   ar
    18     8    11    1
    19    11    12   ar
    20    12    13   ar
    21    13    14   ar
    22    14    15   ar
    23    15    16   ar
    24     8     9   ar
    25     9    10   ar
    26    10     1   ar
    27    10     5   ar
    28    16    11   ar
    29    22    23    1
    30    18    20    1
    31    18    21    1
@<TRIPOS>MOLECULE
*****
 29 31 0 0 0
SMALL
GASTEIGER

@<TRIPOS>ATOM
      1 C         139.2528  139.4600  163.6560 C.ar    1  UNL1        0.0519
      2 C         139.6197  138.6049  162.4795 C.ar    1  UNL1        0.0853
      3 C         140.9117  137.8428  162.4801 C.ar    1  UNL1        0.1045
      4 N         141.8368  137.9359  163.6571 N.ar    1  UNL1       -0.2436
      5 C         141.4700  138.7911  164.8336 C.ar    1  UNL1        0.0825
      6 C         142.3952  138.8842  166.0106 C.ar    1  UNL1        0.0191
      7 C         142.0283  139.7394  167.1871 C.ar    1  UNL1        0.0016
      8 C         140.7363  140.5014  167.1865 C.ar    1  UNL1        0.0031
      9 C         139.8112  140.4083  166.0095 C.ar    1  UNL1        0.0028
     10 C         140.1780  139.5532  164.8331 C.ar    1  UNL1        0.0309
     11 C         140.3695  141.3566  168.3631 C.ar    1  UNL1        0.0384
     12 C         139.7935  140.7276  169.5969 C.ar    1  UNL1        0.1022
     13 N         139.4267  141.5828  170.7735 N.ar    1  UNL1       -0.2224
     14 C         139.6359  143.0670  170.7160 C.ar    1  UNL1        0.1989
     15 N         140.2119  143.6961  169.4821 N.ar    1  UNL1       -0.2224
     16 C         140.5787  142.8409  168.3056 C.ar    1  UNL1        0.1022
     17 C         138.6945  138.5117  161.3025 C.2     1  UNL1        0.2455
     18 N         139.2355  138.6515  159.9104 N.am    1  UNL1       -0.3252
     19 O         137.2284  138.2788  161.5174 O.2     1  UNL1       -0.2703
     20 H         140.1978  138.8044  159.7693 H       1  UNL1        0.1453
     21 H         138.6283  138.5904  159.1379 H       1  UNL1        0.1453
     22 N         137.9608  140.2221  163.6554 N.pl3   1  UNL1       -0.3325
     23 H         137.1749  139.8589  164.1240 H       1  UNL1        0.1468
     24 C         137.8663  141.5377  162.9409 C.3     1  UNL1        0.0870
     25 C         138.6240  142.7261  163.4544 C.3     1  UNL1        0.0195
     26 C         140.3247  143.8945  161.8757 C.3     1  UNL1        0.0001
     27 C         140.0386  142.9610  163.0144 C.3     1  UNL1        0.0017
     28 C         137.9669  143.6796  164.4079 C.3     1  UNL1        0.0017
     29 C         138.8054  144.5252  165.3199 C.3     1  UNL1        0.0001
@<TRIPOS>BOND
     1    26    27    1
     2    27    25    1
     3    25    28    1
     4    28    29    1
     5    25    24    1
     6    24    22    1
     7    22     1    1
     8     1     2   ar
     9     2    17    1
    10    17    18   am
    11    17    19    2
    12     2     3   ar
    13     3     4   ar
    14     4     5   ar
    15     5     6   ar
    16     6     7   ar
    17     7     8   ar
    18     8    11    1
    19    11    12   ar
    20    12    13   ar
    21    13    14   ar
    22    14    15   ar
    23    15    16   ar
    24     8     9   ar
    25     9    10   ar
    26    10     1   ar
    27    10     5   ar
    28    16    11   ar
    29    22    23    1
    30    18    20    1
    31    18    21    1
@<TRIPOS>MOLECULE
*****
 29 31 0 0 0
SMALL
GASTEIGER

@<TRIPOS>ATOM
      1 C         141.4089  139.2671  163.7440 C.ar    1  UNL1        0.0519
      2 C         141.0720  138.5154  162.4905 C.ar    1  UNL1        0.0853
      3 C         139.7874  137.7463  162.3994 C.ar    1  UNL1        0.1045
      4 N         138.8397  137.7288  163.5619 N.ar    1  UNL1       -0.2436
      5 C         139.1765  138.4805  164.8156 C.ar    1  UNL1        0.0825
      6 C         138.2288  138.4630  165.9781 C.ar    1  UNL1        0.0191
      7 C         138.5657  139.2147  167.2316 C.ar    1  UNL1        0.0016
      8 C         139.8503  139.9839  167.3227 C.ar    1  UNL1        0.0031
      9 C         140.7980  140.0013  166.1602 C.ar    1  UNL1        0.0028
     10 C         140.4611  139.2496  164.9066 C.ar    1  UNL1        0.0309
     11 C         140.1871  140.7356  168.5763 C.ar    1  UNL1        0.0384
     12 C         139.5624  140.3371  169.8805 C.ar    1  UNL1        0.1022
     13 N         139.8992  141.0888  171.1342 N.ar    1  UNL1       -0.2224
     14 C         140.8608  142.2390  171.0835 C.ar    1  UNL1        0.1989
     15 N         141.4855  142.6374  169.7793 N.ar    1  UNL1       -0.2224
     16 C         141.1487  141.8857  168.5257 C.ar    1  UNL1        0.1022
     17 C         142.0198  138.5328  161.3279 C.2     1  UNL1        0.2455
     18 N         142.8202  137.3089  160.9944 N.am    1  UNL1       -0.3252
     19 O         142.1670  139.7742  160.4988 O.2     1  UNL1       -0.2703
     20 H         142.7236  136.4942  161.5386 H       1  UNL1        0.1453
     21 H         143.4423  137.3203  160.2314 H       1  UNL1        0.1453
     22 N         142.6934  140.0362  163.8351 N.pl3   1  UNL1       -0.3325
     23 H         143.5088  139.5952  164.1665 H       1  UNL1        0.1468
     24 C         142.7356  141.4774  163.4211 C.3     1  UNL1        0.0870
     25 C         142.5671  142.5579  164.4479 C.3     1  UNL1        0.0195
     26 C         140.3000  143.5064  165.2908 C.3     1  UNL1        0.0001
     27 C         141.4440  143.5441  164.3214 C.3     1  UNL1        0.0017
     28 C         143.5216  142.6520  165.6012 C.3     1  UNL1        0.0017
     29 C         144.6234  143.6697  165.5817 C.3     1  UNL1        0.0001
@<TRIPOS>BOND
     1    26    27    1
     2    27    25    1
     3    25    28    1
     4    28    29    1
     5    25    24    1
     6    24    22    1
     7    22     1    1
     8     1     2   ar
     9     2    17    1
    10    17    18   am
    11    17    19    2
    12     2     3   ar
    13     3     4   ar
    14     4     5   ar
    15     5     6   ar
    16     6     7   ar
    17     7     8   ar
    18     8    11    1
    19    11    12   ar
    20    12    13   ar
    21    13    14   ar
    22    14    15   ar
    23    15    16   ar
    24     8     9   ar
    25     9    10   ar
    26    10     1   ar
    27    10     5   ar
    28    16    11   ar
    29    22    23    1
    30    18    20    1
    31    18    21    1
@<TRIPOS>MOLECULE
*****
 29 31 0 0 0
SMALL
GASTEIGER

@<TRIPOS>ATOM
      1 C         140.4278  140.3260  162.9090 C.ar    1  UNL1        0.0519
      2 C         140.1975  139.5190  161.6658 C.ar    1  UNL1        0.0853
      3 C         139.4017  138.2492  161.7326 C.ar    1  UNL1        0.1045
      4 N         138.8363  137.7865  163.0426 N.ar    1  UNL1       -0.2436
      5 C         139.0667  138.5935  164.2859 C.ar    1  UNL1        0.0825
      6 C         138.5013  138.1308  165.5959 C.ar    1  UNL1        0.0191
      7 C         138.7317  138.9378  166.8391 C.ar    1  UNL1        0.0016
      8 C         139.5274  140.2076  166.7723 C.ar    1  UNL1        0.0031
      9 C         140.0928  140.6703  165.4623 C.ar    1  UNL1        0.0028
     10 C         139.8624  139.8633  164.2191 C.ar    1  UNL1        0.0309
     11 C         139.7578  141.0147  168.0155 C.ar    1  UNL1        0.0384
     12 C         140.3890  142.3722  167.9223 C.ar    1  UNL1        0.1022
     13 N         140.6193  143.1792  169.1656 N.ar    1  UNL1       -0.2224
     14 C         140.2185  142.6287  170.5021 C.ar    1  UNL1        0.1989
     15 N         139.5873  141.2711  170.5953 N.ar    1  UNL1       -0.2224
     16 C         139.3569  140.4641  169.3520 C.ar    1  UNL1        0.1022
     17 C         140.7629  139.9817  160.3557 C.2     1  UNL1        0.2455
     18 N         139.8694  140.1137  159.1580 N.am    1  UNL1       -0.3252
     19 O         142.2216  140.3123  160.2433 O.2     1  UNL1       -0.2703
     20 H         138.9120  139.8967  159.2318 H       1  UNL1        0.1453
     21 H         140.2405  140.4174  158.2982 H       1  UNL1        0.1453
     22 N         141.2236  141.5958  162.8421 N.pl3   1  UNL1       -0.3325
     23 H         142.1698  141.5986  163.1142 H       1  UNL1        0.1468
     24 C         140.5777  142.8612  162.3608 C.3     1  UNL1        0.0870
     25 C         139.5162  143.5232  163.1884 C.3     1  UNL1        0.0195
     26 C         138.8551  144.7326  165.3908 C.3     1  UNL1        0.0001
     27 C         139.8995  144.3346  164.3904 C.3     1  UNL1        0.0017
     28 C         138.0713  143.3738  162.8141 C.3     1  UNL1        0.0017
     29 C         137.3064  142.1581  163.2463 C.3     1  UNL1        0.0001
@<TRIPOS>BOND
     1    26    27    1
     2    27    25    1
     3    25    28    1
     4    28    29    1
     5    25    24    1
     6    24    22    1
     7    22     1    1
     8     1     2   ar
     9     2    17    1
    10    17    18   am
    11    17    19    2
    12     2     3   ar
    13     3     4   ar
    14     4     5   ar
    15     5     6   ar
    16     6     7   ar
    17     7     8   ar
    18     8    11    1
    19    11    12   ar
    20    12    13   ar
    21    13    14   ar
    22    14    15   ar
    23    15    16   ar
    24     8     9   ar
    25     9    10   ar
    26    10     1   ar
    27    10     5   ar
    28    16    11   ar
    29    22    23    1
    30    18    20    1
    31    18    21    1
@<TRIPOS>MOLECULE
*****
 29 31 0 0 0
SMALL
GASTEIGER

@<TRIPOS>ATOM
      1 C         143.2117  139.4445  163.3579 C.ar    1  UNL1        0.0519
      2 C         144.0024  139.7769  162.1275 C.ar    1  UNL1        0.0853
      3 C         144.7536  141.0727  162.0459 C.ar    1  UNL1        0.1045
      4 N         144.7139  142.0361  163.1949 N.ar    1  UNL1       -0.2436
      5 C         143.9231  141.7037  164.4255 C.ar    1  UNL1        0.0825
      6 C         143.8835  142.6672  165.5745 C.ar    1  UNL1        0.0191
      7 C         143.0927  142.3348  166.8049 C.ar    1  UNL1        0.0016
      8 C         142.3416  141.0389  166.8865 C.ar    1  UNL1        0.0031
      9 C         142.3812  140.0755  165.7375 C.ar    1  UNL1        0.0028
     10 C         143.1720  140.4079  164.5070 C.ar    1  UNL1        0.0309
     11 C         141.5508  140.7066  168.1170 C.ar    1  UNL1        0.0384
     12 C         140.2808  141.4469  168.4151 C.ar    1  UNL1        0.1022
     13 N         139.4900  141.1145  169.6457 N.ar    1  UNL1       -0.2224
     14 C         139.9693  140.0418  170.5781 C.ar    1  UNL1        0.1989
     15 N         141.2394  139.3015  170.2800 N.ar    1  UNL1       -0.2224
     16 C         142.0301  139.6339  169.0495 C.ar    1  UNL1        0.1022
     17 C         144.0421  138.8134  160.9784 C.2     1  UNL1        0.2455
     18 N         143.9398  139.3207  159.5705 N.am    1  UNL1       -0.3252
     19 O         144.1842  137.3428  161.2373 O.2     1  UNL1       -0.2703
     20 H         143.8465  140.2859  159.4006 H       1  UNL1        0.1453
     21 H         143.9658  138.6884  158.8163 H       1  UNL1        0.1453
     22 N         142.4606  138.1486  163.4395 N.pl3   1  UNL1       -0.3325
     23 H         142.8789  137.3628  163.8597 H       1  UNL1        0.1468
     24 C         141.0720  138.0502  162.8806 C.3     1  UNL1        0.0870
     25 C         139.9100  138.5919  163.6593 C.3     1  UNL1        0.0195
     26 C         138.6450  138.6712  165.9272 C.3     1  UNL1        0.0001
     27 C         139.4846  137.9245  164.9335 C.3     1  UNL1        0.0017
     28 C         139.1734  139.8010  163.1637 C.3     1  UNL1        0.0017
     29 C         139.8388  141.1451  163.1838 C.3     1  UNL1        0.0001
@<TRIPOS>BOND
     1    26    27    1
     2    27    25    1
     3    25    28    1
     4    28    29    1
     5    25    24    1
     6    24    22    1
     7    22     1    1
     8     1     2   ar
     9     2    17    1
    10    17    18   am
    11    17    19    2
    12     2     3   ar
    13     3     4   ar
    14     4     5   ar
    15     5     6   ar
    16     6     7   ar
    17     7     8   ar
    18     8    11    1
    19    11    12   ar
    20    12    13   ar
    21    13    14   ar
    22    14    15   ar
    23    15    16   ar
    24     8     9   ar
    25     9    10   ar
    26    10     1   ar
    27    10     5   ar
    28    16    11   ar
    29    22    23    1
    30    18    20    1
    31    18    21    1
@<TRIPOS>MOLECULE
*****
 29 31 0 0 0
SMALL
GASTEIGER

@<TRIPOS>ATOM
      1 C         140.5637  140.0655  167.2059 C.ar    1  UNL1        0.0519
      2 C         140.5744  139.9639  168.7024 C.ar    1  UNL1        0.0853
      3 C         141.7836  139.4265  169.4090 C.ar    1  UNL1        0.1045
      4 N         142.9819  138.9907  168.6191 N.ar    1  UNL1       -0.2436
      5 C         142.9712  139.0923  167.1225 C.ar    1  UNL1        0.0825
      6 C         144.1695  138.6565  166.3326 C.ar    1  UNL1        0.0191
      7 C         144.1587  138.7581  164.8361 C.ar    1  UNL1        0.0016
      8 C         142.9496  139.2955  164.1295 C.ar    1  UNL1        0.0031
      9 C         141.7513  139.7312  164.9194 C.ar    1  UNL1        0.0028
     10 C         141.7620  139.6297  166.4159 C.ar    1  UNL1        0.0309
     11 C         142.9389  139.3970  162.6330 C.ar    1  UNL1        0.0384
     12 C         141.9843  140.3321  161.9515 C.ar    1  UNL1        0.1022
     13 N         141.9736  140.4337  160.4550 N.ar    1  UNL1       -0.2224
     14 C         142.9174  139.6001  159.6399 C.ar    1  UNL1        0.1989
     15 N         143.8720  138.6650  160.3214 N.ar    1  UNL1       -0.2224
     16 C         143.8827  138.5635  161.8179 C.ar    1  UNL1        0.1022
     17 C         139.3761  140.3997  169.4924 C.2     1  UNL1        0.2455
     18 N         139.4455  141.6351  170.3403 N.am    1  UNL1       -0.3252
     19 O         138.1083  139.6001  169.4345 O.2     1  UNL1       -0.2703
     20 H         140.2776  142.1599  170.3784 H       1  UNL1        0.1453
     21 H         138.6590  141.9211  170.8588 H       1  UNL1        0.1453
     22 N         139.3545  140.6028  166.4994 N.pl3   1  UNL1       -0.3325
     23 H         139.2278  141.5751  166.4106 H       1  UNL1        0.1468
     24 C         138.3384  139.6587  165.9281 C.3     1  UNL1        0.0870
     25 C         138.3434  139.3500  164.4602 C.3     1  UNL1        0.0195
     26 C         138.7246  141.5419  163.1185 C.3     1  UNL1        0.0001
     27 C         137.8561  140.3726  163.4770 C.3     1  UNL1        0.0017
     28 C         138.8357  138.0185  163.9755 C.3     1  UNL1        0.0017
     29 C         139.2329  137.8431  162.5397 C.3     1  UNL1        0.0001
@<TRIPOS>BOND
     1    26    27    1
     2    27    25    1
     3    25    28    1
     4    28    29    1
     5    25    24    1
     6    24    22    1
     7    22     1    1
     8     1     2   ar
     9     2    17    1
    10    17    18   am
    11    17    19    2
    12     2     3   ar
    13     3     4   ar
    14     4     5   ar
    15     5     6   ar
    16     6     7   ar
    17     7     8   ar
    18     8    11    1
    19    11    12   ar
    20    12    13   ar
    21    13    14   ar
    22    14    15   ar
    23    15    16   ar
    24     8     9   ar
    25     9    10   ar
    26    10     1   ar
    27    10     5   ar
    28    16    11   ar
    29    22    23    1
    30    18    20    1
    31    18    21    1
