@<TRIPOS>MOLECULE
*****
 33 38 0 0 0
SMALL
GASTEIGER

@<TRIPOS>ATOM
      1 C         139.1261  142.3861  157.7773 C.3     1  UNL1        0.0951
      2 N         139.4153  141.1457  156.9850 N.3     1  UNL1       -0.2887
      3 C         139.3669  139.8024  157.6506 C.3     1  UNL1        0.1161
      4 C         139.0293  139.6994  159.1085 C.3     1  UNL1        0.0510
      5 C         138.7401  140.9398  159.9008 C.2     1  UNL1       -0.0044
      6 C         138.7885  142.2832  159.2352 C.2     1  UNL1        0.0689
      7 N         138.4592  143.3228  160.2651 N.2     1  UNL1       -0.2526
      8 C         138.2074  142.6220  161.5672 C.2     1  UNL1        0.0627
      9 C         137.8424  143.1347  162.9287 C.3     1  UNL1        0.0717
     10 C         137.6510  142.1746  164.0651 C.2     1  UNL1       -0.0198
     11 C         137.8246  140.7018  163.8400 C.2     1  UNL1       -0.0042
     12 C         138.1896  140.1891  162.4784 C.2     1  UNL1        0.0006
     13 C         138.3810  141.1492  161.3420 C.2     1  UNL1        0.0111
     14 H         140.3557  141.2520  156.6043 H       1  UNL1        0.1239
     15 O         139.3195  147.7595  155.1147 O.co2   1  UNL1       -0.6813
     16 S         139.2712  146.4162  155.7803 S.O     1  UNL1        0.0304
     17 C         140.1706  146.1231  156.9444 C.3     1  UNL1        0.2556
     18 C         140.1223  144.7797  157.6101 C.3     1  UNL1        0.0662
     19 C         139.1745  143.7295  157.1117 C.3     1  UNL1        0.0305
     20 C         138.2750  144.0226  155.9475 C.3     1  UNL1        0.0662
     21 C         138.3233  145.3658  155.2819 C.3     1  UNL1        0.2556
     22 C         139.6562  138.5619  156.8583 C.ar    1  UNL1        0.1318
     23 N         140.8367  137.6546  157.0406 N.ar    1  UNL1       -0.2298
     24 C         140.7258  136.5430  156.0396 C.ar    1  UNL1        0.0996
     25 C         139.4768  136.7632  155.2387 C.ar    1  UNL1        0.0927
     26 N         138.8157  138.0110  155.7447 N.ar    1  UNL1       -0.3386
     27 H         137.9774  138.4001  155.4054 H       1  UNL1        0.1672
     28 C         141.6940  135.4099  155.8695 C.ar    1  UNL1        0.0192
     29 C         142.8817  135.2955  156.7784 C.ar    1  UNL1        0.0015
     30 C         143.8499  134.1625  156.6083 C.ar    1  UNL1        0.0000
     31 C         143.6304  133.1440  155.5292 C.ar    1  UNL1        0.0000
     32 C         142.4427  133.2585  154.6203 C.ar    1  UNL1        0.0000
     33 C         141.4745  134.3914  154.7904 C.ar    1  UNL1        0.0015
@<TRIPOS>UNITY_ATOM_ATTR
15 1
charge -1
16 1
charge 1
@<TRIPOS>BOND
     1    15    16    2
     2    16    17    1
     3    17    18    1
     4    18    19    1
     5    19     1    1
     6     1     2    1
     7     2     3    1
     8     3    22    1
     9    22    23   ar
    10    23    24   ar
    11    24    28    1
    12    28    29   ar
    13    29    30   ar
    14    30    31   ar
    15    31    32   ar
    16    32    33   ar
    17    24    25   ar
    18    25    26   ar
    19     3     4    1
    20     4     5    1
    21     5     6    2
    22     6     7    1
    23     7     8    2
    24     8     9    1
    25     9    10    1
    26    10    11    2
    27    11    12    1
    28    12    13    2
    29    19    20    1
    30    20    21    1
    31    21    16    1
    32     6     1    1
    33    13     8    1
    34    26    22   ar
    35    13     5    1
    36    33    28   ar
    37     2    14    1
    38    26    27    1
@<TRIPOS>MOLECULE
*****
 33 38 0 0 0
SMALL
GASTEIGER

@<TRIPOS>ATOM
      1 C         142.3955  142.4373  158.3011 C.3     1  UNL1        0.0951
      2 N         142.5615  141.1969  157.4742 N.3     1  UNL1       -0.2887
      3 C         143.3064  140.0194  158.0297 C.3     1  UNL1        0.1161
      4 C         143.8853  140.0823  159.4121 C.3     1  UNL1        0.0510
      5 C         143.7194  141.3228  160.2389 C.2     1  UNL1       -0.0044
      6 C         142.9745  142.5003  159.6835 C.2     1  UNL1        0.0689
      7 N         142.9711  143.5798  160.7249 N.2     1  UNL1       -0.2526
      8 C         143.7139  143.0695  161.9240 C.2     1  UNL1        0.0627
      9 C         144.0289  143.6948  163.2505 C.3     1  UNL1        0.0717
     10 C         144.8064  142.9251  164.2767 C.2     1  UNL1       -0.0198
     11 C         145.2688  141.5302  163.9764 C.2     1  UNL1       -0.0042
     12 C         144.9538  140.9049  162.6499 C.2     1  UNL1        0.0006
     13 C         144.1764  141.6745  161.6237 C.2     1  UNL1        0.0111
     14 H         143.0448  141.4748  156.6201 H       1  UNL1        0.1239
     15 O         139.4160  147.1475  156.0792 O.co2   1  UNL1       -0.6813
     16 S         140.1609  145.9699  156.6347 S.O     1  UNL1        0.0304
     17 C         139.4699  144.6467  156.7814 C.3     1  UNL1        0.2556
     18 C         140.2148  143.4691  157.3369 C.3     1  UNL1        0.0662
     19 C         141.6506  143.6148  157.7456 C.3     1  UNL1        0.0305
     20 C         142.3416  144.9382  157.5989 C.3     1  UNL1        0.0662
     21 C         141.5968  146.1157  157.0434 C.3     1  UNL1        0.2556
     22 C         143.4723  138.7788  157.2028 C.ar    1  UNL1        0.1318
     23 N         142.9279  137.4205  157.5321 N.ar    1  UNL1       -0.2298
     24 C         143.3310  136.4811  156.4344 C.ar    1  UNL1        0.0996
     25 C         144.1244  137.2588  155.4267 C.ar    1  UNL1        0.0927
     26 N         144.2118  138.6790  155.9016 N.ar    1  UNL1       -0.3386
     27 H         144.6734  139.4161  155.4403 H       1  UNL1        0.1672
     28 C         142.9988  135.0202  156.3578 C.ar    1  UNL1        0.0192
     29 C         143.8253  134.0226  157.1138 C.ar    1  UNL1        0.0015
     30 C         143.4932  132.5618  157.0373 C.ar    1  UNL1        0.0000
     31 C         142.3346  132.0988  156.2047 C.ar    1  UNL1        0.0000
     32 C         141.5081  133.0965  155.4487 C.ar    1  UNL1        0.0000
     33 C         141.8402  134.5572  155.5252 C.ar    1  UNL1        0.0015
@<TRIPOS>UNITY_ATOM_ATTR
15 1
charge -1
16 1
charge 1
@<TRIPOS>BOND
     1    15    16    2
     2    16    17    1
     3    17    18    1
     4    18    19    1
     5    19     1    1
     6     1     2    1
     7     2     3    1
     8     3    22    1
     9    22    23   ar
    10    23    24   ar
    11    24    28    1
    12    28    29   ar
    13    29    30   ar
    14    30    31   ar
    15    31    32   ar
    16    32    33   ar
    17    24    25   ar
    18    25    26   ar
    19     3     4    1
    20     4     5    1
    21     5     6    2
    22     6     7    1
    23     7     8    2
    24     8     9    1
    25     9    10    1
    26    10    11    2
    27    11    12    1
    28    12    13    2
    29    19    20    1
    30    20    21    1
    31    21    16    1
    32     6     1    1
    33    13     8    1
    34    26    22   ar
    35    13     5    1
    36    33    28   ar
    37     2    14    1
    38    26    27    1
@<TRIPOS>MOLECULE
*****
 33 38 0 0 0
SMALL
GASTEIGER

@<TRIPOS>ATOM
      1 C         140.8956  137.1151  155.5923 C.3     1  UNL1        0.0951
      2 N         141.3544  137.8465  156.8190 N.3     1  UNL1       -0.2887
      3 C         142.4042  137.2422  157.7037 C.3     1  UNL1        0.1161
      4 C         142.9952  135.9066  157.3619 C.3     1  UNL1        0.0510
      5 C         142.5365  135.1752  156.1353 C.2     1  UNL1       -0.0044
      6 C         141.4867  135.7795  155.2505 C.2     1  UNL1        0.0689
      7 N         141.2349  134.8312  154.1159 N.2     1  UNL1       -0.2526
      8 C         142.1291  133.6409  154.2994 C.2     1  UNL1        0.0627
      9 C         142.3148  132.3910  153.4913 C.3     1  UNL1        0.0717
     10 C         143.3049  131.3536  153.9312 C.2     1  UNL1       -0.0198
     11 C         144.1093  131.5663  155.1793 C.2     1  UNL1       -0.0042
     12 C         143.9236  132.8162  155.9874 C.2     1  UNL1        0.0006
     13 C         142.9335  133.8536  155.5475 C.2     1  UNL1        0.0111
     14 H         140.5290  137.9939  157.3998 H       1  UNL1        0.1239
     15 O         136.6963  139.5320  152.0533 O.co2   1  UNL1       -0.6813
     16 S         137.7461  138.9277  152.9381 S.O     1  UNL1        0.0304
     17 C         139.1829  139.3279  152.7781 C.3     1  UNL1        0.2556
     18 C         140.2328  138.7237  153.6629 C.3     1  UNL1        0.0662
     19 C         139.8458  137.7193  154.7076 C.3     1  UNL1        0.0305
     20 C         138.4090  137.3191  154.8675 C.3     1  UNL1        0.0662
     21 C         137.3592  137.9233  153.9828 C.3     1  UNL1        0.2556
     22 C         142.8630  137.9736  158.9304 C.ar    1  UNL1        0.1318
     23 N         142.5637  137.5898  160.3492 N.ar    1  UNL1       -0.2298
     24 C         143.2173  138.5962  161.2493 C.ar    1  UNL1        0.0996
     25 C         143.9205  139.6018  160.3867 C.ar    1  UNL1        0.0927
     26 N         143.7016  139.2171  158.9536 N.ar    1  UNL1       -0.3386
     27 H         144.0475  139.6965  158.1663 H       1  UNL1        0.1672
     28 C         143.1751  138.5967  162.7488 C.ar    1  UNL1        0.0192
     29 C         141.9991  138.0030  163.4661 C.ar    1  UNL1        0.0015
     30 C         141.9568  138.0035  164.9655 C.ar    1  UNL1        0.0000
     31 C         143.0905  138.5977  165.7475 C.ar    1  UNL1        0.0000
     32 C         144.2665  139.1914  165.0302 C.ar    1  UNL1        0.0000
     33 C         144.3088  139.1909  163.5308 C.ar    1  UNL1        0.0015
@<TRIPOS>UNITY_ATOM_ATTR
15 1
charge -1
16 1
charge 1
@<TRIPOS>BOND
     1    15    16    2
     2    16    17    1
     3    17    18    1
     4    18    19    1
     5    19     1    1
     6     1     2    1
     7     2     3    1
     8     3    22    1
     9    22    23   ar
    10    23    24   ar
    11    24    28    1
    12    28    29   ar
    13    29    30   ar
    14    30    31   ar
    15    31    32   ar
    16    32    33   ar
    17    24    25   ar
    18    25    26   ar
    19     3     4    1
    20     4     5    1
    21     5     6    2
    22     6     7    1
    23     7     8    2
    24     8     9    1
    25     9    10    1
    26    10    11    2
    27    11    12    1
    28    12    13    2
    29    19    20    1
    30    20    21    1
    31    21    16    1
    32     6     1    1
    33    13     8    1
    34    26    22   ar
    35    13     5    1
    36    33    28   ar
    37     2    14    1
    38    26    27    1
@<TRIPOS>MOLECULE
*****
 33 38 0 0 0
SMALL
GASTEIGER

@<TRIPOS>ATOM
      1 C         142.2981  137.5069  156.5981 C.3     1  UNL1        0.0951
      2 N         141.2390  137.6351  157.6526 N.3     1  UNL1       -0.2887
      3 C         141.2422  138.8146  158.5793 C.3     1  UNL1        0.1161
      4 C         142.3045  139.8660  158.4514 C.3     1  UNL1        0.0510
      5 C         143.3635  139.7378  157.3969 C.2     1  UNL1       -0.0044
      6 C         143.3603  138.5583  156.4703 C.2     1  UNL1        0.0689
      7 N         144.5241  138.7008  155.5347 N.2     1  UNL1       -0.2526
      8 C         145.2465  139.9683  155.8831 C.2     1  UNL1        0.0627
      9 C         146.4649  140.6217  155.3011 C.3     1  UNL1        0.0717
     10 C         146.9659  141.9160  155.8700 C.2     1  UNL1       -0.0198
     11 C         146.2485  142.5569  157.0210 C.2     1  UNL1       -0.0042
     12 C         145.0302  141.9036  157.6030 C.2     1  UNL1        0.0006
     13 C         144.5292  140.6093  157.0341 C.2     1  UNL1        0.0111
     14 H         141.3029  136.8015  158.2369 H       1  UNL1        0.1239
     15 O         142.2853  132.7887  152.8916 O.co2   1  UNL1       -0.6813
     16 S         142.2885  133.9683  153.8183 S.O     1  UNL1        0.0304
     17 C         141.9273  135.3292  153.3012 C.3     1  UNL1        0.2556
     18 C         141.9305  136.5088  154.2278 C.3     1  UNL1        0.0662
     19 C         142.2949  136.3274  155.6715 C.3     1  UNL1        0.0305
     20 C         142.6561  134.9664  156.1885 C.3     1  UNL1        0.0662
     21 C         142.6530  133.7869  155.2620 C.3     1  UNL1        0.2556
     22 C         140.1831  138.9428  159.6338 C.ar    1  UNL1        0.1318
     23 N         140.3796  138.7510  161.1085 N.ar    1  UNL1       -0.2298
     24 C         139.0596  138.9750  161.7849 C.ar    1  UNL1        0.0996
     25 C         138.0475  139.3052  160.7283 C.ar    1  UNL1        0.0927
     26 N         138.7418  139.2853  159.3989 N.ar    1  UNL1       -0.3386
     27 H         138.3248  139.4654  158.5254 H       1  UNL1        0.1672
     28 C         138.7979  138.8846  163.2592 C.ar    1  UNL1        0.0192
     29 C         138.3546  140.1001  164.0181 C.ar    1  UNL1        0.0015
     30 C         138.0928  140.0098  165.4923 C.ar    1  UNL1        0.0000
     31 C         138.2743  138.7039  166.2075 C.ar    1  UNL1        0.0000
     32 C         138.7176  137.4884  165.4486 C.ar    1  UNL1        0.0000
     33 C         138.9794  137.5787  163.9744 C.ar    1  UNL1        0.0015
@<TRIPOS>UNITY_ATOM_ATTR
15 1
charge -1
16 1
charge 1
@<TRIPOS>BOND
     1    15    16    2
     2    16    17    1
     3    17    18    1
     4    18    19    1
     5    19     1    1
     6     1     2    1
     7     2     3    1
     8     3    22    1
     9    22    23   ar
    10    23    24   ar
    11    24    28    1
    12    28    29   ar
    13    29    30   ar
    14    30    31   ar
    15    31    32   ar
    16    32    33   ar
    17    24    25   ar
    18    25    26   ar
    19     3     4    1
    20     4     5    1
    21     5     6    2
    22     6     7    1
    23     7     8    2
    24     8     9    1
    25     9    10    1
    26    10    11    2
    27    11    12    1
    28    12    13    2
    29    19    20    1
    30    20    21    1
    31    21    16    1
    32     6     1    1
    33    13     8    1
    34    26    22   ar
    35    13     5    1
    36    33    28   ar
    37     2    14    1
    38    26    27    1
@<TRIPOS>MOLECULE
*****
 33 38 0 0 0
SMALL
GASTEIGER

@<TRIPOS>ATOM
      1 C         142.7119  139.6161  161.4671 C.3     1  UNL1        0.0951
      2 N         142.9844  138.6570  160.3464 N.3     1  UNL1       -0.2887
      3 C         142.7082  139.0622  158.9288 C.3     1  UNL1        0.1161
      4 C         142.1596  140.4263  158.6319 C.3     1  UNL1        0.0510
      5 C         141.8872  141.3854  159.7526 C.2     1  UNL1       -0.0044
      6 C         142.1633  140.9802  161.1702 C.2     1  UNL1        0.0689
      7 N         141.7978  142.1307  162.0606 N.2     1  UNL1       -0.2526
      8 C         141.2958  143.2469  161.1933 C.2     1  UNL1        0.0627
      9 C         140.7955  144.6231  161.5181 C.3     1  UNL1        0.0717
     10 C         140.3505  145.5387  160.4165 C.2     1  UNL1       -0.0198
     11 C         140.4057  145.0781  158.9901 C.2     1  UNL1       -0.0042
     12 C         140.9060  143.7018  158.6652 C.2     1  UNL1        0.0006
     13 C         141.3510  142.7862  159.7668 C.2     1  UNL1        0.0111
     14 H         142.4246  137.8241  160.5289 H       1  UNL1        0.1239
     15 O         143.8167  137.9956  167.1375 O.co2   1  UNL1       -0.6813
     16 S         143.5405  138.4007  165.7199 S.O     1  UNL1        0.0304
     17 C         142.2183  138.0752  165.0909 C.3     1  UNL1        0.2556
     18 C         141.9420  138.4804  163.6732 C.3     1  UNL1        0.0662
     19 C         142.9881  139.2109  162.8847 C.3     1  UNL1        0.0305
     20 C         144.3104  139.5364  163.5137 C.3     1  UNL1        0.0662
     21 C         144.5866  139.1314  164.9313 C.3     1  UNL1        0.2556
     22 C         142.9807  138.1031  157.8080 C.ar    1  UNL1        0.1318
     23 N         142.5567  136.6653  157.7554 N.ar    1  UNL1       -0.2298
     24 C         143.0389  136.0870  156.4580 C.ar    1  UNL1        0.0996
     25 C         143.7608  137.1676  155.7088 C.ar    1  UNL1        0.0927
     26 N         143.7249  138.4136  156.5432 N.ar    1  UNL1       -0.3386
     27 H         144.1203  139.2825  156.3029 H       1  UNL1        0.1672
     28 C         142.8349  134.6760  155.9916 C.ar    1  UNL1        0.0192
     29 C         142.9749  133.5386  156.9595 C.ar    1  UNL1        0.0015
     30 C         142.7709  132.1276  156.4932 C.ar    1  UNL1        0.0000
     31 C         142.4269  131.8540  155.0591 C.ar    1  UNL1        0.0000
     32 C         142.2868  132.9914  154.0913 C.ar    1  UNL1        0.0000
     33 C         142.4908  134.4024  154.5575 C.ar    1  UNL1        0.0015
@<TRIPOS>UNITY_ATOM_ATTR
15 1
charge -1
16 1
charge 1
@<TRIPOS>BOND
     1    15    16    2
     2    16    17    1
     3    17    18    1
     4    18    19    1
     5    19     1    1
     6     1     2    1
     7     2     3    1
     8     3    22    1
     9    22    23   ar
    10    23    24   ar
    11    24    28    1
    12    28    29   ar
    13    29    30   ar
    14    30    31   ar
    15    31    32   ar
    16    32    33   ar
    17    24    25   ar
    18    25    26   ar
    19     3     4    1
    20     4     5    1
    21     5     6    2
    22     6     7    1
    23     7     8    2
    24     8     9    1
    25     9    10    1
    26    10    11    2
    27    11    12    1
    28    12    13    2
    29    19    20    1
    30    20    21    1
    31    21    16    1
    32     6     1    1
    33    13     8    1
    34    26    22   ar
    35    13     5    1
    36    33    28   ar
    37     2    14    1
    38    26    27    1
@<TRIPOS>MOLECULE
*****
 33 38 0 0 0
SMALL
GASTEIGER

@<TRIPOS>ATOM
      1 C         143.4197  141.2190  161.7998 C.3     1  UNL1        0.0951
      2 N         144.1842  140.9237  160.5435 N.3     1  UNL1       -0.2887
      3 C         143.9909  141.7819  159.3286 C.3     1  UNL1        0.1161
      4 C         143.0330  142.9355  159.3700 C.3     1  UNL1        0.0510
      5 C         142.2685  143.2309  160.6263 C.2     1  UNL1       -0.0044
      6 C         142.4619  142.3727  161.8412 C.2     1  UNL1        0.0689
      7 N         141.5759  142.9031  162.9291 N.2     1  UNL1       -0.2526
      8 C         140.8350  144.0892  162.3866 C.2     1  UNL1        0.0627
      9 C         139.8258  145.0109  163.0047 C.3     1  UNL1        0.0717
     10 C         139.2448  146.1351  162.1995 C.2     1  UNL1       -0.0198
     11 C         139.6729  146.3377  160.7763 C.2     1  UNL1       -0.0042
     12 C         140.6820  145.4161  160.1582 C.2     1  UNL1        0.0006
     13 C         141.2631  144.2918  160.9633 C.2     1  UNL1        0.0111
     14 H         143.9461  139.9700  160.2713 H       1  UNL1        0.1239
     15 O         144.1932  137.7860  166.6594 O.co2   1  UNL1       -0.6813
     16 S         143.9999  138.6443  165.4445 S.O     1  UNL1        0.0304
     17 C         142.6465  138.7461  164.8059 C.3     1  UNL1        0.2556
     18 C         142.4531  139.6043  163.5909 C.3     1  UNL1        0.0662
     19 C         143.6131  140.3608  163.0147 C.3     1  UNL1        0.0305
     20 C         144.9665  140.2590  163.6534 C.3     1  UNL1        0.0662
     21 C         145.1599  139.4008  164.8683 C.3     1  UNL1        0.2556
     22 C         144.7554  141.4865  158.0723 C.ar    1  UNL1        0.1318
     23 N         145.7806  142.3765  157.4343 N.ar    1  UNL1       -0.2298
     24 C         146.2878  141.6894  156.2011 C.ar    1  UNL1        0.0996
     25 C         145.5760  140.3749  156.0770 C.ar    1  UNL1        0.0927
     26 N         144.6290  140.2495  157.2334 N.ar    1  UNL1       -0.3386
     27 H         144.0296  139.4889  157.4107 H       1  UNL1        0.1672
     28 C         147.3247  142.2232  155.2577 C.ar    1  UNL1        0.0192
     29 C         146.9837  143.3496  154.3277 C.ar    1  UNL1        0.0015
     30 C         148.0205  143.8834  153.3844 C.ar    1  UNL1        0.0000
     31 C         149.3983  143.2908  153.3710 C.ar    1  UNL1        0.0000
     32 C         149.7394  142.1643  154.3009 C.ar    1  UNL1        0.0000
     33 C         148.7026  141.6305  155.2443 C.ar    1  UNL1        0.0015
@<TRIPOS>UNITY_ATOM_ATTR
15 1
charge -1
16 1
charge 1
@<TRIPOS>BOND
     1    15    16    2
     2    16    17    1
     3    17    18    1
     4    18    19    1
     5    19     1    1
     6     1     2    1
     7     2     3    1
     8     3    22    1
     9    22    23   ar
    10    23    24   ar
    11    24    28    1
    12    28    29   ar
    13    29    30   ar
    14    30    31   ar
    15    31    32   ar
    16    32    33   ar
    17    24    25   ar
    18    25    26   ar
    19     3     4    1
    20     4     5    1
    21     5     6    2
    22     6     7    1
    23     7     8    2
    24     8     9    1
    25     9    10    1
    26    10    11    2
    27    11    12    1
    28    12    13    2
    29    19    20    1
    30    20    21    1
    31    21    16    1
    32     6     1    1
    33    13     8    1
    34    26    22   ar
    35    13     5    1
    36    33    28   ar
    37     2    14    1
    38    26    27    1
@<TRIPOS>MOLECULE
*****
 33 38 0 0 0
SMALL
GASTEIGER

@<TRIPOS>ATOM
      1 C         140.0239  139.6826  163.1505 C.3     1  UNL1        0.0951
      2 N         139.8523  139.0484  161.8021 N.3     1  UNL1       -0.2887
      3 C         140.6052  139.5836  160.6203 C.3     1  UNL1        0.1161
      4 C         141.5297  140.7531  160.7869 C.3     1  UNL1        0.0510
      5 C         141.7013  141.3873  162.1353 C.2     1  UNL1       -0.0044
      6 C         140.9484  140.8521  163.3171 C.2     1  UNL1        0.0689
      7 N         141.3176  141.6771  164.5142 N.2     1  UNL1       -0.2526
      8 C         142.2987  142.7222  164.0723 C.2     1  UNL1        0.0627
      9 C         143.0067  143.8137  164.8187 C.3     1  UNL1        0.0717
     10 C         143.9519  144.7262  164.0948 C.2     1  UNL1       -0.0198
     11 C         144.1890  144.5470  162.6245 C.2     1  UNL1       -0.0042
     12 C         143.4810  143.4555  161.8781 C.2     1  UNL1        0.0006
     13 C         142.5358  142.5431  162.6020 C.2     1  UNL1        0.0111
     14 H         138.8605  139.1099  161.5718 H       1  UNL1        0.1239
     15 O         137.0122  137.5417  167.8777 O.co2   1  UNL1       -0.6813
     16 S         137.7652  138.0769  166.6959 S.O     1  UNL1        0.0304
     17 C         137.8420  139.5567  166.4632 C.3     1  UNL1        0.2556
     18 C         138.5950  140.0920  165.2813 C.3     1  UNL1        0.0662
     19 C         139.2710  139.1474  164.3323 C.3     1  UNL1        0.0305
     20 C         139.1940  137.6675  164.5651 C.3     1  UNL1        0.0662
     21 C         138.4412  137.1323  165.7468 C.3     1  UNL1        0.2556
     22 C         140.4336  138.9494  159.2717 C.ar    1  UNL1        0.1318
     23 N         141.4133  138.0366  158.5957 N.ar    1  UNL1       -0.2298
     24 C         140.8374  137.6397  157.2688 C.ar    1  UNL1        0.0996
     25 C         139.5019  138.3072  157.1247 C.ar    1  UNL1        0.0927
     26 N         139.2523  139.1166  158.3626 N.ar    1  UNL1       -0.3386
     27 H         138.4534  139.6619  158.5462 H       1  UNL1        0.1672
     28 C         141.4837  136.7342  156.2625 C.ar    1  UNL1        0.0192
     29 C         140.6588  136.1105  155.1759 C.ar    1  UNL1        0.0015
     30 C         141.3051  135.2051  154.1697 C.ar    1  UNL1        0.0000
     31 C         142.7761  134.9233  154.2500 C.ar    1  UNL1        0.0000
     32 C         143.6010  135.5470  155.3366 C.ar    1  UNL1        0.0000
     33 C         142.9548  136.4524  156.3428 C.ar    1  UNL1        0.0015
@<TRIPOS>UNITY_ATOM_ATTR
15 1
charge -1
16 1
charge 1
@<TRIPOS>BOND
     1    15    16    2
     2    16    17    1
     3    17    18    1
     4    18    19    1
     5    19     1    1
     6     1     2    1
     7     2     3    1
     8     3    22    1
     9    22    23   ar
    10    23    24   ar
    11    24    28    1
    12    28    29   ar
    13    29    30   ar
    14    30    31   ar
    15    31    32   ar
    16    32    33   ar
    17    24    25   ar
    18    25    26   ar
    19     3     4    1
    20     4     5    1
    21     5     6    2
    22     6     7    1
    23     7     8    2
    24     8     9    1
    25     9    10    1
    26    10    11    2
    27    11    12    1
    28    12    13    2
    29    19    20    1
    30    20    21    1
    31    21    16    1
    32     6     1    1
    33    13     8    1
    34    26    22   ar
    35    13     5    1
    36    33    28   ar
    37     2    14    1
    38    26    27    1
@<TRIPOS>MOLECULE
*****
 33 38 0 0 0
SMALL
GASTEIGER

@<TRIPOS>ATOM
      1 C         141.1584  139.2991  160.3555 C.3     1  UNL1        0.0951
      2 N         141.7328  138.2015  159.5097 N.3     1  UNL1       -0.2887
      3 C         142.4038  138.5300  158.2090 C.3     1  UNL1        0.1161
      4 C         142.5004  139.9561  157.7541 C.3     1  UNL1        0.0510
      5 C         141.9260  141.0537  158.5999 C.2     1  UNL1       -0.0044
      6 C         141.2551  140.7252  159.9006 C.2     1  UNL1        0.0689
      7 N         140.7854  142.0094  160.5171 N.2     1  UNL1       -0.2526
      8 C         141.1661  143.1316  159.5975 C.2     1  UNL1        0.0627
      9 C         140.9620  144.6150  159.6859 C.3     1  UNL1        0.0717
     10 C         141.4628  145.5077  158.5895 C.2     1  UNL1       -0.0198
     11 C         142.1677  144.9170  157.4045 C.2     1  UNL1       -0.0042
     12 C         142.3719  143.4336  157.3160 C.2     1  UNL1        0.0006
     13 C         141.8711  142.5409  158.4125 C.2     1  UNL1        0.0111
     14 H         140.9659  137.5649  159.2929 H       1  UNL1        0.1239
     15 O         138.4744  137.9850  165.5583 O.co2   1  UNL1       -0.6813
     16 S         139.1454  138.3135  164.2576 S.O     1  UNL1        0.0304
     17 C         140.4731  139.0114  164.2539 C.3     1  UNL1        0.2556
     18 C         141.1442  139.3400  162.9531 C.3     1  UNL1        0.0662
     19 C         140.4874  138.9706  161.6562 C.3     1  UNL1        0.0305
     20 C         139.1596  138.2727  161.6599 C.3     1  UNL1        0.0662
     21 C         138.4886  137.9441  162.9606 C.3     1  UNL1        0.2556
     22 C         142.9781  137.4324  157.3631 C.ar    1  UNL1        0.1318
     23 N         142.9449  135.9665  157.6794 N.ar    1  UNL1       -0.2298
     24 C         143.6328  135.2361  156.5643 C.ar    1  UNL1        0.0996
     25 C         144.0911  136.2506  155.5590 C.ar    1  UNL1        0.0927
     26 N         143.6865  137.6080  156.0527 N.ar    1  UNL1       -0.3386
     27 H         143.8561  138.4639  155.5967 H       1  UNL1        0.1672
     28 C         143.8281  133.7517  156.4710 C.ar    1  UNL1        0.0192
     29 C         144.4784  133.0084  157.6000 C.ar    1  UNL1        0.0015
     30 C         144.6737  131.5241  157.5067 C.ar    1  UNL1        0.0000
     31 C         144.2187  130.7832  156.2845 C.ar    1  UNL1        0.0000
     32 C         143.5683  131.5265  155.1555 C.ar    1  UNL1        0.0000
     33 C         143.3731  133.0108  155.2488 C.ar    1  UNL1        0.0015
@<TRIPOS>UNITY_ATOM_ATTR
15 1
charge -1
16 1
charge 1
@<TRIPOS>BOND
     1    15    16    2
     2    16    17    1
     3    17    18    1
     4    18    19    1
     5    19     1    1
     6     1     2    1
     7     2     3    1
     8     3    22    1
     9    22    23   ar
    10    23    24   ar
    11    24    28    1
    12    28    29   ar
    13    29    30   ar
    14    30    31   ar
    15    31    32   ar
    16    32    33   ar
    17    24    25   ar
    18    25    26   ar
    19     3     4    1
    20     4     5    1
    21     5     6    2
    22     6     7    1
    23     7     8    2
    24     8     9    1
    25     9    10    1
    26    10    11    2
    27    11    12    1
    28    12    13    2
    29    19    20    1
    30    20    21    1
    31    21    16    1
    32     6     1    1
    33    13     8    1
    34    26    22   ar
    35    13     5    1
    36    33    28   ar
    37     2    14    1
    38    26    27    1
@<TRIPOS>MOLECULE
*****
 33 38 0 0 0
SMALL
GASTEIGER

@<TRIPOS>ATOM
      1 C         139.4599  145.9073  156.4297 C.3     1  UNL1        0.0951
      2 N         140.2401  145.7533  157.7016 N.3     1  UNL1       -0.2887
      3 C         140.1471  144.4799  158.4889 C.3     1  UNL1        0.1161
      4 C         139.2740  143.3605  158.0043 C.3     1  UNL1        0.0510
      5 C         138.4938  143.5146  156.7325 C.2     1  UNL1       -0.0044
      6 C         138.5868  144.7880  155.9452 C.2     1  UNL1        0.0689
      7 N         137.7077  144.6514  154.7375 N.2     1  UNL1       -0.2526
      8 C         137.0715  143.2936  154.7784 C.2     1  UNL1        0.0627
      9 C         136.1125  142.6063  153.8522 C.3     1  UNL1        0.0717
     10 C         135.6394  141.2163  154.1590 C.2     1  UNL1       -0.0198
     11 C         136.1252  140.5137  155.3920 C.2     1  UNL1       -0.0042
     12 C         137.0842  141.2011  156.3182 C.2     1  UNL1        0.0006
     13 C         137.5573  142.5910  156.0114 C.2     1  UNL1        0.0111
     14 H         139.9425  146.5058  158.3225 H       1  UNL1        0.1239
     15 O         139.8316  151.0010  153.2807 O.co2   1  UNL1       -0.6813
     16 S         139.7386  149.7276  154.0680 S.O     1  UNL1        0.0304
     17 C         140.4376  148.4926  153.5819 C.3     1  UNL1        0.2556
     18 C         140.3447  147.2191  154.3692 C.3     1  UNL1        0.0662
     19 C         139.5528  147.1807  155.6425 C.3     1  UNL1        0.0305
     20 C         138.8538  148.4158  156.1286 C.3     1  UNL1        0.0662
     21 C         138.9467  149.6891  155.3414 C.3     1  UNL1        0.2556
     22 C         140.9273  144.3258  159.7608 C.ar    1  UNL1        0.1318
     23 N         141.7334  143.1257  160.1606 N.ar    1  UNL1       -0.2298
     24 C         142.3427  143.4029  161.5030 C.ar    1  UNL1        0.0996
     25 C         141.9131  144.7743  161.9327 C.ar    1  UNL1        0.0927
     26 N         141.0383  145.3447  160.8560 N.ar    1  UNL1       -0.3386
     27 H         140.6119  146.2320  160.8662 H       1  UNL1        0.1672
     28 C         143.2264  142.4721  162.2794 C.ar    1  UNL1        0.0192
     29 C         142.6249  141.3313  163.0454 C.ar    1  UNL1        0.0015
     30 C         143.5085  140.4005  163.8217 C.ar    1  UNL1        0.0000
     31 C         144.9937  140.6105  163.8320 C.ar    1  UNL1        0.0000
     32 C         145.5952  141.7513  163.0661 C.ar    1  UNL1        0.0000
     33 C         144.7116  142.6821  162.2897 C.ar    1  UNL1        0.0015
@<TRIPOS>UNITY_ATOM_ATTR
15 1
charge -1
16 1
charge 1
@<TRIPOS>BOND
     1    15    16    2
     2    16    17    1
     3    17    18    1
     4    18    19    1
     5    19     1    1
     6     1     2    1
     7     2     3    1
     8     3    22    1
     9    22    23   ar
    10    23    24   ar
    11    24    28    1
    12    28    29   ar
    13    29    30   ar
    14    30    31   ar
    15    31    32   ar
    16    32    33   ar
    17    24    25   ar
    18    25    26   ar
    19     3     4    1
    20     4     5    1
    21     5     6    2
    22     6     7    1
    23     7     8    2
    24     8     9    1
    25     9    10    1
    26    10    11    2
    27    11    12    1
    28    12    13    2
    29    19    20    1
    30    20    21    1
    31    21    16    1
    32     6     1    1
    33    13     8    1
    34    26    22   ar
    35    13     5    1
    36    33    28   ar
    37     2    14    1
    38    26    27    1
