@<TRIPOS>MOLECULE
*****
 37 40 0 0 0
SMALL
GASTEIGER

@<TRIPOS>ATOM
      1 O         138.5575  139.1702  159.1850 O.2     1  UNL1       -0.2733
      2 C         139.8971  138.6628  158.7401 C.2     1  UNL1        0.2426
      3 N         140.9684  138.3861  159.7528 N.am    1  UNL1       -0.3018
      4 H         141.8476  138.0530  159.4608 H       1  UNL1        0.1495
      5 C         140.7002  138.6168  161.2105 C.3     1  UNL1        0.1035
      6 C         140.5925  137.7379  162.4213 C.3     1  UNL1        0.0933
      7 N         140.3208  138.9430  163.2720 N.3     1  UNL1       -0.2711
      8 C         140.4285  139.8220  162.0613 C.3     1  UNL1        0.0933
      9 C         140.0526  139.1737  164.7297 C.3     1  UNL1        0.0578
     10 C         138.7002  138.8664  165.3012 C.3     1  UNL1        0.0187
     11 C         138.4320  139.0971  166.7590 C.3     1  UNL1        0.0326
     12 C         139.5161  139.6351  167.6451 C.3     1  UNL1        0.1085
     13 O         138.4065  139.4981  168.6449 O.3     1  UNL1       -0.3826
     14 C         140.8685  139.9424  167.0735 C.3     1  UNL1        0.0326
     15 C         141.1367  139.7117  165.6158 C.3     1  UNL1        0.0187
     16 H         137.6154  139.1502  168.2044 H       1  UNL1        0.2107
     17 C         140.2149  140.1255  168.8784 C.ar    1  UNL1        0.0209
     18 C         141.6547  139.7766  169.1135 C.ar    1  UNL1        0.0011
     19 C         142.3535  140.2671  170.3469 C.ar    1  UNL1        0.0204
     20 C         141.6124  141.1064  171.3451 C.ar    1  UNL1        0.0989
     21 N         140.1728  141.4553  171.1101 N.ar    1  UNL1       -0.2426
     22 C         139.4739  140.9649  169.8767 C.ar    1  UNL1        0.0968
     23 C         140.1654  138.4320  157.2825 C.3     1  UNL1        0.1759
     24 N         140.6277  137.0859  156.8088 N.am    1  UNL1       -0.2931
     25 C         142.0882  136.7445  156.8295 C.2     1  UNL1        0.2462
     26 O         143.0864  137.7492  157.3237 O.2     1  UNL1       -0.2701
     27 H         139.9726  136.4265  156.4845 H       1  UNL1        0.1502
     28 C         142.5505  135.3984  156.3558 C.ar    1  UNL1        0.0533
     29 C         142.0346  134.8404  155.0626 C.ar    1  UNL1        0.0045
     30 C         142.4970  133.4944  154.5891 C.ar    1  UNL1        0.0001
     31 C         143.4753  132.7063  155.4087 C.ar    1  UNL1        0.0039
     32 C         143.9912  133.2642  156.7019 C.ar    1  UNL1        0.0716
     33 C         143.5288  134.6103  157.1755 C.ar    1  UNL1        0.0084
     34 C         144.9695  132.4761  157.5216 C.3     1  UNL1        0.4186
     35 F         145.9478  131.6880  158.3412 F       1  UNL1       -0.1659
     36 F         145.2214  131.5720  156.3515 F       1  UNL1       -0.1659
     37 F         144.7176  133.3803  158.6916 F       1  UNL1       -0.1659
@<TRIPOS>BOND
     1     1     2    2
     2     2    23    1
     3    23    24    1
     4    24    25   am
     5    25    26    2
     6    25    28    1
     7    28    29   ar
     8    29    30   ar
     9    30    31   ar
    10    31    32   ar
    11    32    34    1
    12    34    35    1
    13    34    36    1
    14    34    37    1
    15    32    33   ar
    16     2     3   am
    17     3     5    1
    18     5     6    1
    19     6     7    1
    20     9     7    1
    21     9    10    1
    22    10    11    1
    23    11    12    1
    24    12    13    1
    25    12    17    1
    26    17    18   ar
    27    18    19   ar
    28    19    20   ar
    29    20    21   ar
    30    21    22   ar
    31    12    14    1
    32    14    15    1
    33     7     8    1
    34    33    28   ar
    35     8     5    1
    36    15     9    1
    37    22    17   ar
    38    24    27    1
    39     3     4    1
    40    13    16    1
@<TRIPOS>MOLECULE
*****
 37 40 0 0 0
SMALL
GASTEIGER

@<TRIPOS>ATOM
      1 O         141.8295  140.0504  159.2183 O.2     1  UNL1       -0.2733
      2 C         142.5118  138.7759  158.8183 C.2     1  UNL1        0.2426
      3 N         143.0440  137.8481  159.8698 N.am    1  UNL1       -0.3018
      4 H         143.4918  137.0116  159.6073 H       1  UNL1        0.1495
      5 C         142.8937  138.1947  161.3215 C.3     1  UNL1        0.1035
      6 C         141.9512  137.7909  162.4164 C.3     1  UNL1        0.0933
      7 N         142.6812  138.6847  163.3745 N.3     1  UNL1       -0.2711
      8 C         143.6237  139.0885  162.2797 C.3     1  UNL1        0.0933
      9 C         142.5310  139.0313  164.8261 C.3     1  UNL1        0.0578
     10 C         143.3780  138.3409  165.8536 C.3     1  UNL1        0.0187
     11 C         143.2277  138.6875  167.3053 C.3     1  UNL1        0.0326
     12 C         142.2304  139.7244  167.7295 C.3     1  UNL1        0.1085
     13 O         142.7998  139.3489  169.0654 O.3     1  UNL1       -0.3826
     14 C         141.3833  140.4149  166.7020 C.3     1  UNL1        0.0326
     15 C         141.5336  140.0683  165.2503 C.3     1  UNL1        0.0187
     16 H         143.4787  138.6663  168.9471 H       1  UNL1        0.2107
     17 C         141.4308  140.6310  168.6176 C.ar    1  UNL1        0.0209
     18 C         141.4102  142.1082  168.3578 C.ar    1  UNL1        0.0011
     19 C         140.6105  143.0148  169.2459 C.ar    1  UNL1        0.0204
     20 C         139.8315  142.4441  170.3938 C.ar    1  UNL1        0.0989
     21 N         139.8521  140.9671  170.6535 N.ar    1  UNL1       -0.2426
     22 C         140.6518  140.0604  169.7655 C.ar    1  UNL1        0.0968
     23 C         142.6621  138.4293  157.3667 C.3     1  UNL1        0.1759
     24 N         142.4902  137.0099  156.9128 N.am    1  UNL1       -0.2931
     25 C         143.5374  136.3651  156.0540 C.2     1  UNL1        0.2462
     26 O         144.7565  137.1396  155.6491 O.2     1  UNL1       -0.2701
     27 H         141.6900  136.5016  157.1785 H       1  UNL1        0.1502
     28 C         143.3655  134.9458  155.6001 C.ar    1  UNL1        0.0533
     29 C         142.6448  134.6503  154.3182 C.ar    1  UNL1        0.0045
     30 C         142.4729  133.2310  153.8644 C.ar    1  UNL1        0.0001
     31 C         143.0217  132.1072  154.6924 C.ar    1  UNL1        0.0039
     32 C         143.7424  132.4026  155.9744 C.ar    1  UNL1        0.0716
     33 C         143.9143  133.8219  156.4282 C.ar    1  UNL1        0.0084
     34 C         144.2912  131.2787  156.8024 C.3     1  UNL1        0.4186
     35 F         144.8400  130.1548  157.6305 F       1  UNL1       -0.1659
     36 F         145.6867  131.6979  156.4465 F       1  UNL1       -0.1659
     37 F         142.8956  130.8595  157.1584 F       1  UNL1       -0.1659
@<TRIPOS>BOND
     1     1     2    2
     2     2    23    1
     3    23    24    1
     4    24    25   am
     5    25    26    2
     6    25    28    1
     7    28    29   ar
     8    29    30   ar
     9    30    31   ar
    10    31    32   ar
    11    32    34    1
    12    34    35    1
    13    34    36    1
    14    34    37    1
    15    32    33   ar
    16     2     3   am
    17     3     5    1
    18     5     6    1
    19     6     7    1
    20     9     7    1
    21     9    10    1
    22    10    11    1
    23    11    12    1
    24    12    13    1
    25    12    17    1
    26    17    18   ar
    27    18    19   ar
    28    19    20   ar
    29    20    21   ar
    30    21    22   ar
    31    12    14    1
    32    14    15    1
    33     7     8    1
    34    33    28   ar
    35     8     5    1
    36    15     9    1
    37    22    17   ar
    38    24    27    1
    39     3     4    1
    40    13    16    1
@<TRIPOS>MOLECULE
*****
 37 40 0 0 0
SMALL
GASTEIGER

@<TRIPOS>ATOM
      1 O         141.3974  139.0944  159.4024 O.2     1  UNL1       -0.2733
      2 C         142.4903  138.1306  159.0463 C.2     1  UNL1        0.2426
      3 N         143.4305  137.6380  160.1061 N.am    1  UNL1       -0.3018
      4 H         144.1478  137.0054  159.8724 H       1  UNL1        0.1495
      5 C         143.2778  138.1091  161.5221 C.3     1  UNL1        0.1035
      6 C         142.2420  137.9328  162.5927 C.3     1  UNL1        0.0933
      7 N         143.0618  138.7752  163.5245 N.3     1  UNL1       -0.2711
      8 C         144.0976  138.9515  162.4539 C.3     1  UNL1        0.0933
      9 C         142.9091  139.2463  164.9404 C.3     1  UNL1        0.0578
     10 C         143.3240  138.3576  166.0753 C.3     1  UNL1        0.0187
     11 C         143.1712  138.8287  167.4913 C.3     1  UNL1        0.0326
     12 C         142.6037  140.1884  167.7722 C.3     1  UNL1        0.1085
     13 O         142.8513  139.7149  169.1737 O.3     1  UNL1       -0.3826
     14 C         142.1889  141.0771  166.6372 C.3     1  UNL1        0.0326
     15 C         142.3416  140.6061  165.2213 C.3     1  UNL1        0.0187
     16 H         143.2294  138.8219  169.1512 H       1  UNL1        0.2107
     17 C         142.1222  141.3837  168.5399 C.ar    1  UNL1        0.0209
     18 C         140.8092  142.0198  168.1913 C.ar    1  UNL1        0.0011
     19 C         140.3276  143.2151  168.9589 C.ar    1  UNL1        0.0204
     20 C         141.1591  143.7744  170.0752 C.ar    1  UNL1        0.0989
     21 N         142.4720  143.1384  170.4238 N.ar    1  UNL1       -0.2426
     22 C         142.9537  141.9430  169.6561 C.ar    1  UNL1        0.0968
     23 C         142.6430  137.6595  157.6305 C.3     1  UNL1        0.1759
     24 N         142.5455  136.1969  157.3120 N.am    1  UNL1       -0.2931
     25 C         143.4989  135.5772  156.3339 C.2     1  UNL1        0.2462
     26 O         144.5499  136.4199  155.6741 O.2     1  UNL1       -0.2701
     27 H         141.8557  135.6438  157.7450 H       1  UNL1        0.1502
     28 C         143.4015  134.1145  156.0154 C.ar    1  UNL1        0.0533
     29 C         144.5467  133.1997  156.3340 C.ar    1  UNL1        0.0045
     30 C         144.4491  131.7372  156.0156 C.ar    1  UNL1        0.0001
     31 C         143.2065  131.1895  155.3785 C.ar    1  UNL1        0.0039
     32 C         142.0613  132.1044  155.0600 C.ar    1  UNL1        0.0716
     33 C         142.1588  133.5669  155.3784 C.ar    1  UNL1        0.0084
     34 C         140.8186  131.5567  154.4229 C.3     1  UNL1        0.4186
     35 F         139.5759  131.0090  153.7859 F       1  UNL1       -0.1659
     36 F         140.9046  130.3423  155.2992 F       1  UNL1       -0.1659
     37 F         140.7326  132.7711  153.5467 F       1  UNL1       -0.1659
@<TRIPOS>BOND
     1     1     2    2
     2     2    23    1
     3    23    24    1
     4    24    25   am
     5    25    26    2
     6    25    28    1
     7    28    29   ar
     8    29    30   ar
     9    30    31   ar
    10    31    32   ar
    11    32    34    1
    12    34    35    1
    13    34    36    1
    14    34    37    1
    15    32    33   ar
    16     2     3   am
    17     3     5    1
    18     5     6    1
    19     6     7    1
    20     9     7    1
    21     9    10    1
    22    10    11    1
    23    11    12    1
    24    12    13    1
    25    12    17    1
    26    17    18   ar
    27    18    19   ar
    28    19    20   ar
    29    20    21   ar
    30    21    22   ar
    31    12    14    1
    32    14    15    1
    33     7     8    1
    34    33    28   ar
    35     8     5    1
    36    15     9    1
    37    22    17   ar
    38    24    27    1
    39     3     4    1
    40    13    16    1
@<TRIPOS>MOLECULE
*****
 37 40 0 0 0
SMALL
GASTEIGER

@<TRIPOS>ATOM
      1 O         141.3689  139.1733  159.1014 O.2     1  UNL1       -0.2733
      2 C         142.7446  139.2484  158.5084 C.2     1  UNL1        0.2426
      3 N         143.9025  139.6902  159.3535 N.am    1  UNL1       -0.3018
      4 H         144.8054  139.7395  158.9642 H       1  UNL1        0.1495
      5 C         143.6846  140.0569  160.7916 C.3     1  UNL1        0.1035
      6 C         142.8692  141.0902  161.5109 C.3     1  UNL1        0.0933
      7 N         143.3764  140.5755  162.8253 N.3     1  UNL1       -0.2711
      8 C         144.1919  139.5422  162.1061 C.3     1  UNL1        0.0933
      9 C         143.1585  140.9422  164.2634 C.3     1  UNL1        0.0578
     10 C         143.8684  142.1256  164.8515 C.3     1  UNL1        0.0187
     11 C         143.6504  142.4922  166.2896 C.3     1  UNL1        0.0326
     12 C         142.7227  141.6756  167.1395 C.3     1  UNL1        0.1085
     13 O         143.1635  142.6987  168.1439 O.3     1  UNL1       -0.3826
     14 C         142.0129  140.4923  166.5514 C.3     1  UNL1        0.0326
     15 C         142.2308  140.1256  165.1134 C.3     1  UNL1        0.0187
     16 H         143.7855  143.3148  167.7263 H       1  UNL1        0.2107
     17 C         141.9481  141.2143  168.3383 C.ar    1  UNL1        0.0209
     18 C         140.4567  141.0740  168.2591 C.ar    1  UNL1        0.0011
     19 C         139.6821  140.6127  169.4578 C.ar    1  UNL1        0.0204
     20 C         140.3988  140.2916  170.7359 C.ar    1  UNL1        0.0989
     21 N         141.8900  140.4319  170.8151 N.ar    1  UNL1       -0.2426
     22 C         142.6648  140.8932  169.6164 C.ar    1  UNL1        0.0968
     23 C         142.9625  138.8818  157.0704 C.3     1  UNL1        0.1759
     24 N         143.3967  137.4924  156.7081 N.am    1  UNL1       -0.2931
     25 C         142.3710  136.4445  156.3924 C.2     1  UNL1        0.2462
     26 O         140.9111  136.7858  156.4389 O.2     1  UNL1       -0.2701
     27 H         144.3549  137.2683  156.6775 H       1  UNL1        0.1502
     28 C         142.8052  135.0551  156.0301 C.ar    1  UNL1        0.0533
     29 C         142.3410  134.4353  154.7454 C.ar    1  UNL1        0.0045
     30 C         142.7752  133.0459  154.3832 C.ar    1  UNL1        0.0001
     31 C         143.6735  132.2764  155.3056 C.ar    1  UNL1        0.0039
     32 C         144.1377  132.8963  156.5903 C.ar    1  UNL1        0.0716
     33 C         143.7035  134.2856  156.9525 C.ar    1  UNL1        0.0084
     34 C         145.0361  132.1267  157.5127 C.3     1  UNL1        0.4186
     35 F         145.9344  131.3572  158.4351 F       1  UNL1       -0.1659
     36 F         144.9173  133.2160  158.5371 F       1  UNL1       -0.1659
     37 F         145.1549  131.0375  156.4883 F       1  UNL1       -0.1659
@<TRIPOS>BOND
     1     1     2    2
     2     2    23    1
     3    23    24    1
     4    24    25   am
     5    25    26    2
     6    25    28    1
     7    28    29   ar
     8    29    30   ar
     9    30    31   ar
    10    31    32   ar
    11    32    34    1
    12    34    35    1
    13    34    36    1
    14    34    37    1
    15    32    33   ar
    16     2     3   am
    17     3     5    1
    18     5     6    1
    19     6     7    1
    20     9     7    1
    21     9    10    1
    22    10    11    1
    23    11    12    1
    24    12    13    1
    25    12    17    1
    26    17    18   ar
    27    18    19   ar
    28    19    20   ar
    29    20    21   ar
    30    21    22   ar
    31    12    14    1
    32    14    15    1
    33     7     8    1
    34    33    28   ar
    35     8     5    1
    36    15     9    1
    37    22    17   ar
    38    24    27    1
    39     3     4    1
    40    13    16    1
@<TRIPOS>MOLECULE
*****
 37 40 0 0 0
SMALL
GASTEIGER

@<TRIPOS>ATOM
      1 O         140.9173  142.8861  158.9732 O.2     1  UNL1       -0.2733
      2 C         139.4839  143.0448  158.5607 C.2     1  UNL1        0.2426
      3 N         138.3911  142.9127  159.5797 N.am    1  UNL1       -0.3018
      4 H         137.4504  143.0169  159.3090 H       1  UNL1        0.1495
      5 C         138.7318  142.6219  161.0113 C.3     1  UNL1        0.1035
      6 C         139.5971  141.6172  161.7127 C.3     1  UNL1        0.0933
      7 N         139.2136  142.2106  163.0359 N.3     1  UNL1       -0.2711
      8 C         138.3483  143.2152  162.3345 C.3     1  UNL1        0.0933
      9 C         139.5543  141.9197  164.4674 C.3     1  UNL1        0.0578
     10 C         138.9224  140.7528  165.1666 C.3     1  UNL1        0.0187
     11 C         139.2631  140.4619  166.5982 C.3     1  UNL1        0.0326
     12 C         140.2357  141.3381  167.3305 C.3     1  UNL1        0.1085
     13 O         139.9012  140.3571  168.4148 O.3     1  UNL1       -0.3826
     14 C         140.8676  142.5051  166.6313 C.3     1  UNL1        0.0326
     15 C         140.5270  142.7959  165.1998 C.3     1  UNL1        0.0187
     16 H         139.2629  139.7087  168.0785 H       1  UNL1        0.2107
     17 C         141.0922  141.8735  168.4394 C.ar    1  UNL1        0.0209
     18 C         142.5863  141.8573  168.3078 C.ar    1  UNL1        0.0011
     19 C         143.4428  142.3928  169.4167 C.ar    1  UNL1        0.0204
     20 C         142.8051  142.9445  170.6573 C.ar    1  UNL1        0.0989
     21 N         141.3111  142.9607  170.7890 N.ar    1  UNL1       -0.2426
     22 C         140.4545  142.4252  169.6801 C.ar    1  UNL1        0.0968
     23 C         139.1432  143.3356  157.1292 C.3     1  UNL1        0.1759
     24 N         139.6693  144.5762  156.4701 N.am    1  UNL1       -0.2931
     25 C         138.7787  145.3846  155.5738 C.2     1  UNL1        0.2462
     26 O         137.3620  144.9525  155.3366 O.2     1  UNL1       -0.2701
     27 H         140.5991  144.8598  156.6257 H       1  UNL1        0.1502
     28 C         139.3048  146.6251  154.9147 C.ar    1  UNL1        0.0533
     29 C         140.3155  146.5173  153.8117 C.ar    1  UNL1        0.0045
     30 C         140.8416  147.7578  153.1527 C.ar    1  UNL1        0.0001
     31 C         140.3568  149.1061  153.5967 C.ar    1  UNL1        0.0039
     32 C         139.3461  149.2139  154.6997 C.ar    1  UNL1        0.0716
     33 C         138.8200  147.9734  155.3587 C.ar    1  UNL1        0.0084
     34 C         138.8613  150.5622  155.1436 C.3     1  UNL1        0.4186
     35 F         138.3766  151.9105  155.5876 F       1  UNL1       -0.1659
     36 F         139.2923  151.1490  153.8322 F       1  UNL1       -0.1659
     37 F         138.4303  149.9755  156.4551 F       1  UNL1       -0.1659
@<TRIPOS>BOND
     1     1     2    2
     2     2    23    1
     3    23    24    1
     4    24    25   am
     5    25    26    2
     6    25    28    1
     7    28    29   ar
     8    29    30   ar
     9    30    31   ar
    10    31    32   ar
    11    32    34    1
    12    34    35    1
    13    34    36    1
    14    34    37    1
    15    32    33   ar
    16     2     3   am
    17     3     5    1
    18     5     6    1
    19     6     7    1
    20     9     7    1
    21     9    10    1
    22    10    11    1
    23    11    12    1
    24    12    13    1
    25    12    17    1
    26    17    18   ar
    27    18    19   ar
    28    19    20   ar
    29    20    21   ar
    30    21    22   ar
    31    12    14    1
    32    14    15    1
    33     7     8    1
    34    33    28   ar
    35     8     5    1
    36    15     9    1
    37    22    17   ar
    38    24    27    1
    39     3     4    1
    40    13    16    1
@<TRIPOS>MOLECULE
*****
 37 40 0 0 0
SMALL
GASTEIGER

@<TRIPOS>ATOM
      1 O         143.7119  141.7713  162.0578 O.2     1  UNL1       -0.2733
      2 C         142.2601  141.7905  161.6811 C.2     1  UNL1        0.2426
      3 N         141.8605  141.8137  160.2356 N.am    1  UNL1       -0.3018
      4 H         140.9076  141.8263  159.9884 H       1  UNL1        0.1495
      5 C         142.9128  141.8177  159.1665 C.3     1  UNL1        0.1035
      6 C         143.8635  140.7995  158.6102 C.3     1  UNL1        0.0933
      7 N         144.4009  141.8233  157.6547 N.3     1  UNL1       -0.2711
      8 C         143.4502  142.8415  158.2110 C.3     1  UNL1        0.0933
      9 C         145.4531  141.8272  156.5857 C.3     1  UNL1        0.0578
     10 C         145.1577  141.2333  155.2403 C.3     1  UNL1        0.0187
     11 C         146.2100  141.2373  154.1713 C.3     1  UNL1        0.0326
     12 C         147.5576  141.8351  154.4477 C.3     1  UNL1        0.1085
     13 O         147.7539  141.3959  153.0270 O.3     1  UNL1       -0.3826
     14 C         147.8530  142.4290  155.7931 C.3     1  UNL1        0.0326
     15 C         146.8008  142.4250  156.8621 C.3     1  UNL1        0.0187
     16 H         146.9408  140.9784  152.7024 H       1  UNL1        0.2107
     17 C         148.9735  142.2804  154.2308 C.ar    1  UNL1        0.0209
     18 C         149.2949  143.2493  153.1316 C.ar    1  UNL1        0.0011
     19 C         150.7107  143.6946  152.9146 C.ar    1  UNL1        0.0204
     20 C         151.8052  143.1710  153.7968 C.ar    1  UNL1        0.0989
     21 N         151.4838  142.2022  154.8958 N.ar    1  UNL1       -0.2426
     22 C         150.0679  141.7568  155.1129 C.ar    1  UNL1        0.0968
     23 C         141.2078  141.7865  162.7501 C.3     1  UNL1        0.1759
     24 N         141.6052  141.6898  164.1933 N.am    1  UNL1       -0.2931
     25 C         141.1708  142.7483  165.1633 C.2     1  UNL1        0.2462
     26 O         140.3392  143.9035  164.6902 O.2     1  UNL1       -0.2701
     27 H         142.1510  140.9316  164.5039 H       1  UNL1        0.1502
     28 C         141.5682  142.6516  166.6065 C.ar    1  UNL1        0.0533
     29 C         142.9650  142.2475  166.9744 C.ar    1  UNL1        0.0045
     30 C         143.3623  142.1508  168.4176 C.ar    1  UNL1        0.0001
     31 C         142.3627  142.4583  169.4929 C.ar    1  UNL1        0.0039
     32 C         140.9659  142.8625  169.1250 C.ar    1  UNL1        0.0716
     33 C         140.5686  142.9591  167.6818 C.ar    1  UNL1        0.0084
     34 C         139.9663  143.1700  170.2003 C.3     1  UNL1        0.4186
     35 F         138.9667  143.4775  171.2756 F       1  UNL1       -0.1659
     36 F         140.2426  144.6354  170.0381 F       1  UNL1       -0.1659
     37 F         139.6900  141.7046  170.3625 F       1  UNL1       -0.1659
@<TRIPOS>BOND
     1     1     2    2
     2     2    23    1
     3    23    24    1
     4    24    25   am
     5    25    26    2
     6    25    28    1
     7    28    29   ar
     8    29    30   ar
     9    30    31   ar
    10    31    32   ar
    11    32    34    1
    12    34    35    1
    13    34    36    1
    14    34    37    1
    15    32    33   ar
    16     2     3   am
    17     3     5    1
    18     5     6    1
    19     6     7    1
    20     9     7    1
    21     9    10    1
    22    10    11    1
    23    11    12    1
    24    12    13    1
    25    12    17    1
    26    17    18   ar
    27    18    19   ar
    28    19    20   ar
    29    20    21   ar
    30    21    22   ar
    31    12    14    1
    32    14    15    1
    33     7     8    1
    34    33    28   ar
    35     8     5    1
    36    15     9    1
    37    22    17   ar
    38    24    27    1
    39     3     4    1
    40    13    16    1
@<TRIPOS>MOLECULE
*****
 37 40 0 0 0
SMALL
GASTEIGER

@<TRIPOS>ATOM
      1 O         143.4400  137.8893  160.4156 O.2     1  UNL1       -0.2733
      2 C         142.3332  138.0227  159.4119 C.2     1  UNL1        0.2426
      3 N         140.9510  138.3900  159.8641 N.am    1  UNL1       -0.3018
      4 H         140.2246  138.4775  159.2053 H       1  UNL1        0.1495
      5 C         140.6754  138.6239  161.3199 C.3     1  UNL1        0.1035
      6 C         140.2936  139.8140  162.1493 C.3     1  UNL1        0.0933
      7 N         140.2857  138.9548  163.3787 N.3     1  UNL1       -0.2711
      8 C         140.6676  137.7646  162.5494 C.3     1  UNL1        0.0933
      9 C         140.0102  139.1887  164.8345 C.3     1  UNL1        0.0578
     10 C         138.6810  138.8088  165.4168 C.3     1  UNL1        0.0187
     11 C         138.4055  139.0428  166.8726 C.3     1  UNL1        0.0326
     12 C         139.4591  139.6566  167.7461 C.3     1  UNL1        0.1085
     13 O         138.3638  139.4670  168.7532 O.3     1  UNL1       -0.3826
     14 C         140.7883  140.0365  167.1639 C.3     1  UNL1        0.0326
     15 C         141.0638  139.8025  165.7081 C.3     1  UNL1        0.0187
     16 H         137.5931  139.0666  168.3212 H       1  UNL1        0.2107
     17 C         140.1324  140.2046  168.9694 C.ar    1  UNL1        0.0209
     18 C         141.5285  139.7766  169.3124 C.ar    1  UNL1        0.0011
     19 C         142.2018  140.3246  170.5357 C.ar    1  UNL1        0.0204
     20 C         141.4788  141.3006  171.4160 C.ar    1  UNL1        0.0989
     21 N         140.0828  141.7285  171.0731 N.ar    1  UNL1       -0.2426
     22 C         139.4094  141.1806  169.8497 C.ar    1  UNL1        0.0968
     23 C         142.6087  137.7888  157.9562 C.3     1  UNL1        0.1759
     24 N         143.5693  138.6771  157.2224 N.am    1  UNL1       -0.2931
     25 C         143.5371  138.7410  155.7242 C.2     1  UNL1        0.2462
     26 O         142.5442  137.9166  154.9596 O.2     1  UNL1       -0.2701
     27 H         144.2210  139.2182  157.7243 H       1  UNL1        0.1502
     28 C         144.4977  139.6293  154.9905 C.ar    1  UNL1        0.0533
     29 C         144.3011  139.9008  153.5284 C.ar    1  UNL1        0.0045
     30 C         145.2616  140.7890  152.7948 C.ar    1  UNL1        0.0001
     31 C         146.4188  141.4058  153.5232 C.ar    1  UNL1        0.0039
     32 C         146.6154  141.1343  154.9852 C.ar    1  UNL1        0.0716
     33 C         145.6548  140.2460  155.7188 C.ar    1  UNL1        0.0084
     34 C         147.7726  141.7510  155.7136 C.3     1  UNL1        0.4186
     35 F         148.9298  142.3677  156.4420 F       1  UNL1       -0.1659
     36 F         148.6707  141.4350  154.5544 F       1  UNL1       -0.1659
     37 F         146.8745  142.0670  156.8728 F       1  UNL1       -0.1659
@<TRIPOS>BOND
     1     1     2    2
     2     2    23    1
     3    23    24    1
     4    24    25   am
     5    25    26    2
     6    25    28    1
     7    28    29   ar
     8    29    30   ar
     9    30    31   ar
    10    31    32   ar
    11    32    34    1
    12    34    35    1
    13    34    36    1
    14    34    37    1
    15    32    33   ar
    16     2     3   am
    17     3     5    1
    18     5     6    1
    19     6     7    1
    20     9     7    1
    21     9    10    1
    22    10    11    1
    23    11    12    1
    24    12    13    1
    25    12    17    1
    26    17    18   ar
    27    18    19   ar
    28    19    20   ar
    29    20    21   ar
    30    21    22   ar
    31    12    14    1
    32    14    15    1
    33     7     8    1
    34    33    28   ar
    35     8     5    1
    36    15     9    1
    37    22    17   ar
    38    24    27    1
    39     3     4    1
    40    13    16    1
@<TRIPOS>MOLECULE
*****
 37 40 0 0 0
SMALL
GASTEIGER

@<TRIPOS>ATOM
      1 O         142.0260  140.4528  159.3159 O.2     1  UNL1       -0.2733
      2 C         142.9977  139.3881  158.9011 C.2     1  UNL1        0.2426
      3 N         143.7056  138.5721  159.9418 N.am    1  UNL1       -0.3018
      4 H         144.3434  137.8733  159.6696 H       1  UNL1        0.1495
      5 C         143.4419  138.8210  161.3974 C.3     1  UNL1        0.1035
      6 C         142.2442  138.7056  162.2931 C.3     1  UNL1        0.0933
      7 N         143.0688  139.1729  163.4558 N.3     1  UNL1       -0.2711
      8 C         144.2664  139.2883  162.5600 C.3     1  UNL1        0.0933
      9 C         142.8050  139.4217  164.9113 C.3     1  UNL1        0.0578
     10 C         143.4607  138.5610  165.9502 C.3     1  UNL1        0.0187
     11 C         143.1969  138.8099  167.4057 C.3     1  UNL1        0.0326
     12 C         142.2774  139.9194  167.8223 C.3     1  UNL1        0.1085
     13 O         142.6599  139.3788  169.1682 O.3     1  UNL1       -0.3826
     14 C         141.6218  140.7801  166.7834 C.3     1  UNL1        0.0326
     15 C         141.8855  140.5313  165.3279 C.3     1  UNL1        0.0187
     16 H         143.2704  138.6335  169.0557 H       1  UNL1        0.2107
     17 C         141.4908  140.8412  168.7063 C.ar    1  UNL1        0.0209
     18 C         141.9561  142.2506  168.9233 C.ar    1  UNL1        0.0011
     19 C         141.1695  143.1724  169.8073 C.ar    1  UNL1        0.0204
     20 C         139.9175  142.6848  170.4743 C.ar    1  UNL1        0.0989
     21 N         139.4522  141.2755  170.2574 N.ar    1  UNL1       -0.2426
     22 C         140.2388  140.3536  169.3734 C.ar    1  UNL1        0.0968
     23 C         143.2614  139.1392  157.4457 C.3     1  UNL1        0.1759
     24 N         144.3737  139.8664  156.7499 N.am    1  UNL1       -0.2931
     25 C         144.1178  141.2045  156.1223 C.2     1  UNL1        0.2462
     26 O         142.7495  141.8154  156.1903 O.2     1  UNL1       -0.2701
     27 H         145.2718  139.4655  156.7053 H       1  UNL1        0.1502
     28 C         145.2301  141.9317  155.4265 C.ar    1  UNL1        0.0533
     29 C         144.9213  143.0966  154.5334 C.ar    1  UNL1        0.0045
     30 C         146.0336  143.8237  153.8377 C.ar    1  UNL1        0.0001
     31 C         147.4546  143.3860  154.0352 C.ar    1  UNL1        0.0039
     32 C         147.7634  142.2212  154.9283 C.ar    1  UNL1        0.0716
     33 C         146.6511  141.4941  155.6240 C.ar    1  UNL1        0.0084
     34 C         149.1845  141.7835  155.1258 C.3     1  UNL1        0.4186
     35 F         150.6056  141.3459  155.3233 F       1  UNL1       -0.1659
     36 F         149.0985  142.1585  156.5756 F       1  UNL1       -0.1659
     37 F         149.2705  141.4086  153.6760 F       1  UNL1       -0.1659
@<TRIPOS>BOND
     1     1     2    2
     2     2    23    1
     3    23    24    1
     4    24    25   am
     5    25    26    2
     6    25    28    1
     7    28    29   ar
     8    29    30   ar
     9    30    31   ar
    10    31    32   ar
    11    32    34    1
    12    34    35    1
    13    34    36    1
    14    34    37    1
    15    32    33   ar
    16     2     3   am
    17     3     5    1
    18     5     6    1
    19     6     7    1
    20     9     7    1
    21     9    10    1
    22    10    11    1
    23    11    12    1
    24    12    13    1
    25    12    17    1
    26    17    18   ar
    27    18    19   ar
    28    19    20   ar
    29    20    21   ar
    30    21    22   ar
    31    12    14    1
    32    14    15    1
    33     7     8    1
    34    33    28   ar
    35     8     5    1
    36    15     9    1
    37    22    17   ar
    38    24    27    1
    39     3     4    1
    40    13    16    1
@<TRIPOS>MOLECULE
*****
 37 40 0 0 0
SMALL
GASTEIGER

@<TRIPOS>ATOM
      1 O         142.6069  144.6878  161.1083 O.2     1  UNL1       -0.2733
      2 C         141.5534  143.6280  161.2384 C.2     1  UNL1        0.2426
      3 N         141.5644  142.4427  160.3192 N.am    1  UNL1       -0.3018
      4 H         140.8729  141.7471  160.4046 H       1  UNL1        0.1495
      5 C         142.6288  142.3172  159.2698 C.3     1  UNL1        0.1035
      6 C         143.7240  141.3333  158.9822 C.3     1  UNL1        0.0933
      7 N         144.1342  142.1397  157.7858 N.3     1  UNL1       -0.2711
      8 C         143.0391  143.1235  158.0733 C.3     1  UNL1        0.0933
      9 C         145.1987  142.0141  156.7364 C.3     1  UNL1        0.0578
     10 C         144.9070  141.2911  155.4550 C.3     1  UNL1        0.0187
     11 C         145.9715  141.1655  154.4056 C.3     1  UNL1        0.0326
     12 C         147.3276  141.7631  154.6377 C.3     1  UNL1        0.1085
     13 O         147.5315  141.1768  153.2722 O.3     1  UNL1       -0.3826
     14 C         147.6193  142.4861  155.9192 C.3     1  UNL1        0.0326
     15 C         146.5549  142.6117  156.9685 C.3     1  UNL1        0.0187
     16 H         146.7140  140.7436  152.9810 H       1  UNL1        0.2107
     17 C         148.7546  142.1570  154.3956 C.ar    1  UNL1        0.0209
     18 C         149.0950  143.0871  153.2690 C.ar    1  UNL1        0.0011
     19 C         150.5220  143.4810  153.0269 C.ar    1  UNL1        0.0204
     20 C         151.6085  142.9449  153.9114 C.ar    1  UNL1        0.0989
     21 N         151.2681  142.0148  155.0378 N.ar    1  UNL1       -0.2426
     22 C         149.8411  141.6208  155.2800 C.ar    1  UNL1        0.0968
     23 C         140.4890  143.7534  162.2877 C.3     1  UNL1        0.1759
     24 N         140.0982  142.5587  163.1063 N.am    1  UNL1       -0.2931
     25 C         139.8194  142.7124  164.5721 C.2     1  UNL1        0.2462
     26 O         139.9314  144.0609  165.2194 O.2     1  UNL1       -0.2701
     27 H         140.0246  141.6736  162.6814 H       1  UNL1        0.1502
     28 C         139.4286  141.5177  165.3906 C.ar    1  UNL1        0.0533
     29 C         138.4967  140.4900  164.8201 C.ar    1  UNL1        0.0045
     30 C         138.1059  139.2954  165.6386 C.ar    1  UNL1        0.0001
     31 C         138.6471  139.1283  167.0276 C.ar    1  UNL1        0.0039
     32 C         139.5789  140.1560  167.5981 C.ar    1  UNL1        0.0716
     33 C         139.9697  141.3507  166.7796 C.ar    1  UNL1        0.0084
     34 C         140.1201  139.9890  168.9871 C.3     1  UNL1        0.4186
     35 F         140.6612  139.8219  170.3761 F       1  UNL1       -0.1659
     36 F         138.7571  140.2619  169.5509 F       1  UNL1       -0.1659
     37 F         141.4830  139.7160  168.4233 F       1  UNL1       -0.1659
@<TRIPOS>BOND
     1     1     2    2
     2     2    23    1
     3    23    24    1
     4    24    25   am
     5    25    26    2
     6    25    28    1
     7    28    29   ar
     8    29    30   ar
     9    30    31   ar
    10    31    32   ar
    11    32    34    1
    12    34    35    1
    13    34    36    1
    14    34    37    1
    15    32    33   ar
    16     2     3   am
    17     3     5    1
    18     5     6    1
    19     6     7    1
    20     9     7    1
    21     9    10    1
    22    10    11    1
    23    11    12    1
    24    12    13    1
    25    12    17    1
    26    17    18   ar
    27    18    19   ar
    28    19    20   ar
    29    20    21   ar
    30    21    22   ar
    31    12    14    1
    32    14    15    1
    33     7     8    1
    34    33    28   ar
    35     8     5    1
    36    15     9    1
    37    22    17   ar
    38    24    27    1
    39     3     4    1
    40    13    16    1
