@<TRIPOS>MOLECULE
*****
 34 39 0 0 0
SMALL
GASTEIGER

@<TRIPOS>ATOM
      1 C         142.5841  137.8660  157.3027 C.ar    1  UNL1        0.1028
      2 C         142.7796  138.4679  155.9428 C.ar    1  UNL1        0.0131
      3 C         142.4770  139.9193  155.7145 C.ar    1  UNL1       -0.0015
      4 C         141.9648  141.0406  156.6357 C.ar    1  UNL1        0.0035
      5 C         142.1226  139.7123  157.3143 C.ar    1  UNL1        0.0358
      6 C         142.0861  138.7153  158.4344 C.ar    1  UNL1        0.1545
      7 O         141.8608  138.2015  159.8254 O.3     1  UNL1       -0.4528
      8 C         141.4811  138.2491  161.2759 C.ar    1  UNL1        0.1450
      9 C         141.4011  137.1842  162.6338 C.ar    1  UNL1        0.0372
     10 C         140.9816  137.4226  164.0541 C.ar    1  UNL1       -0.0014
     11 C         140.5333  138.7877  164.4846 C.ar    1  UNL1       -0.0244
     12 C         140.5041  139.9151  163.4956 C.ar    1  UNL1       -0.0052
     13 C         141.0047  138.8508  162.5646 C.ar    1  UNL1        0.0345
     14 C         140.0557  141.2800  163.9271 C.3     1  UNL1        0.0977
     15 C         139.6363  141.5174  165.3476 C.3     1  UNL1        0.0247
     16 C         139.6655  140.3900  166.3365 C.3     1  UNL1        0.0067
     17 C         140.1140  139.0252  165.9051 C.3     1  UNL1        0.0262
     18 N         139.7276  142.7375  163.7933 N.am    1  UNL1       -0.2763
     19 C         139.2348  143.9117  164.5862 C.3     1  UNL1        0.0956
     20 C         139.1729  145.0971  163.6692 C.3     1  UNL1        0.0466
     21 C         139.6063  145.0629  161.9946 C.3     1  UNL1        0.1337
     22 N         139.8315  145.5767  160.6035 N.3     1  UNL1       -0.2863
     23 C         140.2113  145.5291  159.1531 C.3     1  UNL1        0.1151
     24 C         140.6877  144.9273  157.8643 C.ar    1  UNL1        0.0739
     25 C         140.5677  146.2044  157.0867 C.ar    1  UNL1        0.1147
     26 N         140.9941  145.9294  155.6752 N.ar    1  UNL1       -0.2226
     27 C         141.3776  144.4823  155.5804 C.ar    1  UNL1        0.1786
     28 N         141.1882  143.8630  156.9334 N.ar    1  UNL1       -0.3070
     29 C         141.6367  142.4982  156.5019 C.3     1  UNL1        0.1341
     30 C         139.5697  144.0659  163.1148 C.2     1  UNL1        0.2401
     31 O         139.3209  144.3515  163.8162 O.2     1  UNL1       -0.2734
     32 H         140.4609  146.3365  160.8621 H       1  UNL1        0.1240
     33 N         143.1892  134.9633  157.7594 N.1     1  UNL1       -0.1907
     34 C         142.8867  136.4146  157.5311 C.1     1  UNL1        0.1035
@<TRIPOS>BOND
     1    33    34    3
     2    34     1    1
     3     1     2   ar
     4     2     3   ar
     5     3     4   ar
     6     4     5   ar
     7     5     6   ar
     8     6     7    1
     9     7     8    1
    10     8     9   ar
    11     9    10   ar
    12    10    11   ar
    13    11    12   ar
    14    12    13   ar
    15    12    14    1
    16    14    15    1
    17    15    16    1
    18    16    17    1
    19    14    18    1
    20    18    19    1
    21    19    20    1
    22    21    20    1
    23    21    22    1
    24    22    23    1
    25    23    24    1
    26    24    25   ar
    27    25    26   ar
    28    26    27   ar
    29    27    28   ar
    30    28    29    1
    31    21    30    1
    32    30    31    2
    33     6     1   ar
    34    13     8   ar
    35    30    18   am
    36    29     4    1
    37    17    11    1
    38    28    24   ar
    39    22    32    1
@<TRIPOS>MOLECULE
*****
 34 39 0 0 0
SMALL
GASTEIGER

@<TRIPOS>ATOM
      1 C         140.1962  144.7234  156.6820 C.ar    1  UNL1        0.1028
      2 C         140.5318  144.1214  155.3498 C.ar    1  UNL1        0.0131
      3 C         141.0407  142.7126  155.2701 C.ar    1  UNL1       -0.0015
      4 C         141.3258  141.6395  156.3357 C.ar    1  UNL1        0.0035
      5 C         140.8138  142.9354  156.8908 C.ar    1  UNL1        0.0358
      6 C         140.3694  143.9167  157.9347 C.ar    1  UNL1        0.1545
      7 O         140.0603  144.4337  159.3084 O.3     1  UNL1       -0.4528
      8 C         139.9334  144.4079  160.8028 C.ar    1  UNL1        0.1450
      9 C         139.4428  145.4582  162.0837 C.ar    1  UNL1        0.0372
     10 C         139.3829  145.2471  163.5675 C.ar    1  UNL1       -0.0014
     11 C         139.7981  143.9310  164.1552 C.ar    1  UNL1       -0.0244
     12 C         140.2733  142.8253  163.2600 C.ar    1  UNL1       -0.0052
     13 C         140.0082  143.8431  162.1904 C.ar    1  UNL1        0.0345
     14 C         140.6883  141.5095  163.8486 C.3     1  UNL1        0.0977
     15 C         140.6280  141.2994  165.3326 C.3     1  UNL1        0.0247
     16 C         140.1528  142.4051  166.2279 C.3     1  UNL1        0.0067
     17 C         139.7378  143.7209  165.6392 C.3     1  UNL1        0.0262
     18 N         141.1899  140.0960  163.8667 N.am    1  UNL1       -0.2763
     19 C         141.5054  138.9699  164.8061 C.3     1  UNL1        0.0956
     20 C         141.9930  137.8090  163.9910 C.3     1  UNL1        0.0466
     21 C         142.1464  137.8188  162.2677 C.3     1  UNL1        0.1337
     22 N         142.4555  137.3017  160.8940 N.3     1  UNL1       -0.2863
     23 C         142.5824  137.3276  159.3996 C.3     1  UNL1        0.1151
     24 C         142.5076  137.8923  158.0120 C.ar    1  UNL1        0.0739
     25 C         143.0121  136.6446  157.3497 C.ar    1  UNL1        0.1147
     26 N         143.0589  136.8913  155.8709 N.ar    1  UNL1       -0.2226
     27 C         142.5832  138.2914  155.6192 C.ar    1  UNL1        0.1786
     28 N         142.2425  138.9101  156.9424 N.ar    1  UNL1       -0.3070
     29 C         141.8275  140.2260  156.3538 C.3     1  UNL1        0.1341
     30 C         141.7020  138.8000  163.3116 C.2     1  UNL1        0.2401
     31 O         141.7286  138.5332  164.0623 O.2     1  UNL1       -0.2734
     32 H         141.8573  136.4771  160.9443 H       1  UNL1        0.1240
     33 N         139.1783  147.5410  156.8414 N.1     1  UNL1       -0.1907
     34 C         139.6872  146.1322  156.7617 C.1     1  UNL1        0.1035
@<TRIPOS>BOND
     1    33    34    3
     2    34     1    1
     3     1     2   ar
     4     2     3   ar
     5     3     4   ar
     6     4     5   ar
     7     5     6   ar
     8     6     7    1
     9     7     8    1
    10     8     9   ar
    11     9    10   ar
    12    10    11   ar
    13    11    12   ar
    14    12    13   ar
    15    12    14    1
    16    14    15    1
    17    15    16    1
    18    16    17    1
    19    14    18    1
    20    18    19    1
    21    19    20    1
    22    21    20    1
    23    21    22    1
    24    22    23    1
    25    23    24    1
    26    24    25   ar
    27    25    26   ar
    28    26    27   ar
    29    27    28   ar
    30    28    29    1
    31    21    30    1
    32    30    31    2
    33     6     1   ar
    34    13     8   ar
    35    30    18   am
    36    29     4    1
    37    17    11    1
    38    28    24   ar
    39    22    32    1
@<TRIPOS>MOLECULE
*****
 34 39 0 0 0
SMALL
GASTEIGER

@<TRIPOS>ATOM
      1 C         139.6026  146.9856  156.3467 C.ar    1  UNL1        0.1028
      2 C         139.7430  146.8270  154.8618 C.ar    1  UNL1        0.0131
      3 C         140.4539  145.6321  154.2989 C.ar    1  UNL1       -0.0015
      4 C         141.1371  144.4164  154.9498 C.ar    1  UNL1        0.0035
      5 C         140.5438  145.3849  155.9295 C.ar    1  UNL1        0.0358
      6 C         140.1730  145.9492  157.2689 C.ar    1  UNL1        0.1545
      7 O         140.0812  146.0232  158.7642 O.3     1  UNL1       -0.4528
      8 C         140.2824  145.5956  160.1879 C.ar    1  UNL1        0.1450
      9 C         139.9061  146.1552  161.7784 C.ar    1  UNL1        0.0372
     10 C         140.2008  145.5705  163.1279 C.ar    1  UNL1       -0.0014
     11 C         140.9482  144.2746  163.2369 C.ar    1  UNL1       -0.0244
     12 C         141.4014  143.5625  161.9969 C.ar    1  UNL1       -0.0052
     13 C         140.7460  144.7315  161.3230 C.ar    1  UNL1        0.0345
     14 C         142.1487  142.2666  162.1068 C.3     1  UNL1        0.0977
     15 C         142.4430  141.6827  163.4568 C.3     1  UNL1        0.0247
     16 C         141.9898  142.3947  164.6968 C.3     1  UNL1        0.0067
     17 C         141.2424  143.6907  164.5869 C.3     1  UNL1        0.0262
     18 N         142.8743  141.0411  161.6361 N.am    1  UNL1       -0.2763
     19 C         143.5688  139.8139  162.1478 C.3     1  UNL1        0.0956
     20 C         144.0603  139.0325  160.9656 C.3     1  UNL1        0.0466
     21 C         143.8385  139.5082  159.3170 C.3     1  UNL1        0.1337
     22 N         143.9303  139.4343  157.8216 N.3     1  UNL1       -0.2863
     23 C         143.7290  139.8619  156.3980 C.3     1  UNL1        0.1151
     24 C         143.2655  140.7259  155.2629 C.ar    1  UNL1        0.0739
     25 C         143.8206  139.8281  154.1972 C.ar    1  UNL1        0.1147
     26 N         143.5084  140.4421  152.8648 N.ar    1  UNL1       -0.2226
     27 C         142.7602  141.7195  153.1070 C.ar    1  UNL1        0.1786
     28 N         142.6101  141.8949  154.5891 N.ar    1  UNL1       -0.3070
     29 C         141.8627  143.1908  154.4791 C.3     1  UNL1        0.1341
     30 C         143.4677  140.0724  160.6565 C.2     1  UNL1        0.2401
     31 O         143.6987  139.6385  161.2840 O.2     1  UNL1       -0.2734
     32 H         143.5048  138.5122  157.7259 H       1  UNL1        0.1240
     33 N         138.1809  149.3755  157.4723 N.1     1  UNL1       -0.1907
     34 C         138.8917  148.1806  156.9095 C.1     1  UNL1        0.1035
@<TRIPOS>BOND
     1    33    34    3
     2    34     1    1
     3     1     2   ar
     4     2     3   ar
     5     3     4   ar
     6     4     5   ar
     7     5     6   ar
     8     6     7    1
     9     7     8    1
    10     8     9   ar
    11     9    10   ar
    12    10    11   ar
    13    11    12   ar
    14    12    13   ar
    15    12    14    1
    16    14    15    1
    17    15    16    1
    18    16    17    1
    19    14    18    1
    20    18    19    1
    21    19    20    1
    22    21    20    1
    23    21    22    1
    24    22    23    1
    25    23    24    1
    26    24    25   ar
    27    25    26   ar
    28    26    27   ar
    29    27    28   ar
    30    28    29    1
    31    21    30    1
    32    30    31    2
    33     6     1   ar
    34    13     8   ar
    35    30    18   am
    36    29     4    1
    37    17    11    1
    38    28    24   ar
    39    22    32    1
@<TRIPOS>MOLECULE
*****
 34 39 0 0 0
SMALL
GASTEIGER

@<TRIPOS>ATOM
      1 C         142.3657  137.5733  156.8143 C.ar    1  UNL1        0.1028
      2 C         142.0746  137.8814  155.3755 C.ar    1  UNL1        0.0131
      3 C         141.5820  139.2434  154.9848 C.ar    1  UNL1       -0.0015
      4 C         141.2769  140.5184  155.7907 C.ar    1  UNL1        0.0035
      5 C         141.7599  139.3673  156.6221 C.ar    1  UNL1        0.0358
      6 C         142.1644  138.6271  157.8626 C.ar    1  UNL1        0.1545
      7 O         142.4287  138.4110  159.3231 O.3     1  UNL1       -0.4528
      8 C         142.5127  138.7516  160.7816 C.ar    1  UNL1        0.1450
      9 C         142.9558  137.9939  162.2696 C.ar    1  UNL1        0.0372
     10 C         142.9750  138.5135  163.6765 C.ar    1  UNL1       -0.0014
     11 C         142.5560  139.9256  163.9603 C.ar    1  UNL1       -0.0244
     12 C         142.1177  140.8188  162.8379 C.ar    1  UNL1       -0.0052
     13 C         142.4035  139.5971  162.0157 C.ar    1  UNL1        0.0345
     14 C         141.6989  142.2307  163.1226 C.3     1  UNL1        0.0977
     15 C         141.7184  142.7495  164.5299 C.3     1  UNL1        0.0247
     16 C         142.1567  141.8563  165.6524 C.3     1  UNL1        0.0067
     17 C         142.5756  140.4443  165.3676 C.3     1  UNL1        0.0262
     18 N         141.2108  143.6179  162.8268 N.am    1  UNL1       -0.2763
     19 C         140.8795  144.9181  163.4973 C.3     1  UNL1        0.0956
     20 C         140.4270  145.8823  162.4411 C.3     1  UNL1        0.0466
     21 C         140.3233  145.5092  160.7549 C.3     1  UNL1        0.1337
     22 N         140.0589  145.7254  159.2942 N.3     1  UNL1       -0.2863
     23 C         139.9750  145.3848  157.8358 C.3     1  UNL1        0.1151
     24 C         140.0842  144.5393  156.6016 C.ar    1  UNL1        0.0739
     25 C         139.6112  145.6206  155.6759 C.ar    1  UNL1        0.1147
     26 N         139.6046  145.0672  154.2818 N.ar    1  UNL1       -0.2226
     27 C         140.0736  143.6438  154.3458 C.ar    1  UNL1        0.1786
     28 N         140.3700  143.3175  155.7796 N.ar    1  UNL1       -0.3070
     29 C         140.7888  141.9056  155.4948 C.3     1  UNL1        0.1341
     30 C         140.7278  144.7692  161.9953 C.2     1  UNL1        0.2401
     31 O         140.6821  145.1886  162.6716 O.2     1  UNL1       -0.2734
     32 H         140.6636  146.5399  159.1874 H       1  UNL1        0.1240
     33 N         143.3507  134.8495  157.5957 N.1     1  UNL1       -0.1907
     34 C         142.8583  136.2114  157.2049 C.1     1  UNL1        0.1035
@<TRIPOS>BOND
     1    33    34    3
     2    34     1    1
     3     1     2   ar
     4     2     3   ar
     5     3     4   ar
     6     4     5   ar
     7     5     6   ar
     8     6     7    1
     9     7     8    1
    10     8     9   ar
    11     9    10   ar
    12    10    11   ar
    13    11    12   ar
    14    12    13   ar
    15    12    14    1
    16    14    15    1
    17    15    16    1
    18    16    17    1
    19    14    18    1
    20    18    19    1
    21    19    20    1
    22    21    20    1
    23    21    22    1
    24    22    23    1
    25    23    24    1
    26    24    25   ar
    27    25    26   ar
    28    26    27   ar
    29    27    28   ar
    30    28    29    1
    31    21    30    1
    32    30    31    2
    33     6     1   ar
    34    13     8   ar
    35    30    18   am
    36    29     4    1
    37    17    11    1
    38    28    24   ar
    39    22    32    1
@<TRIPOS>MOLECULE
*****
 34 39 0 0 0
SMALL
GASTEIGER

@<TRIPOS>ATOM
      1 C         142.2395  135.8409  156.4706 C.ar    1  UNL1        0.1028
      2 C         141.5462  135.5581  155.1709 C.ar    1  UNL1        0.0131
      3 C         140.7398  136.6315  154.5019 C.ar    1  UNL1       -0.0015
      4 C         140.4280  138.0924  154.8718 C.ar    1  UNL1        0.0035
      5 C         141.2993  137.3803  155.8635 C.ar    1  UNL1        0.0358
      6 C         142.1265  137.1972  157.1014 C.ar    1  UNL1        0.1545
      7 O         142.7836  137.5712  158.3968 O.3     1  UNL1       -0.4528
      8 C         143.1707  138.4453  159.5528 C.ar    1  UNL1        0.1450
      9 C         144.1000  138.3428  161.0054 C.ar    1  UNL1        0.0372
     10 C         144.3810  139.3579  162.0733 C.ar    1  UNL1       -0.0014
     11 C         143.8055  140.7389  161.9654 C.ar    1  UNL1       -0.0244
     12 C         142.9489  141.1057  160.7900 C.ar    1  UNL1       -0.0052
     13 C         143.2287  139.6864  160.3931 C.ar    1  UNL1        0.0345
     14 C         142.3738  142.4869  160.6829 C.3     1  UNL1        0.0977
     15 C         142.6553  143.5014  161.7514 C.3     1  UNL1        0.0247
     16 C         143.5120  143.1347  162.9267 C.3     1  UNL1        0.0067
     17 C         144.0871  141.7534  163.0338 C.3     1  UNL1        0.0262
     18 N         141.5910  143.6199  160.0883 N.am    1  UNL1       -0.2763
     19 C         141.2158  145.0508  160.3369 C.3     1  UNL1        0.0956
     20 C         140.3500  145.5072  159.2003 C.3     1  UNL1        0.0466
     21 C         139.8925  144.5151  157.8587 C.3     1  UNL1        0.1337
     22 N         139.2353  144.1411  156.5632 N.3     1  UNL1       -0.2863
     23 C         138.8483  143.2670  155.4073 C.3     1  UNL1        0.1151
     24 C         138.7902  142.0259  154.5669 C.ar    1  UNL1        0.0739
     25 C         137.9170  142.6385  153.5123 C.ar    1  UNL1        0.1147
     26 N         137.6572  141.5980  152.4637 N.ar    1  UNL1       -0.2226
     27 C         138.3698  140.3422  152.8702 C.ar    1  UNL1        0.1786
     28 N         139.0701  140.6066  154.1701 N.ar    1  UNL1       -0.3070
     29 C         139.6452  139.2254  154.2771 C.3     1  UNL1        0.1341
     30 C         140.7197  144.3321  159.0966 C.2     1  UNL1        0.2401
     31 O         140.7727  144.9728  159.5679 O.2     1  UNL1       -0.2734
     32 H         139.6407  144.8941  156.0072 H       1  UNL1        0.1240
     33 N         143.8525  133.6943  157.8086 N.1     1  UNL1       -0.1907
     34 C         143.0460  134.7676  157.1396 C.1     1  UNL1        0.1035
@<TRIPOS>BOND
     1    33    34    3
     2    34     1    1
     3     1     2   ar
     4     2     3   ar
     5     3     4   ar
     6     4     5   ar
     7     5     6   ar
     8     6     7    1
     9     7     8    1
    10     8     9   ar
    11     9    10   ar
    12    10    11   ar
    13    11    12   ar
    14    12    13   ar
    15    12    14    1
    16    14    15    1
    17    15    16    1
    18    16    17    1
    19    14    18    1
    20    18    19    1
    21    19    20    1
    22    21    20    1
    23    21    22    1
    24    22    23    1
    25    23    24    1
    26    24    25   ar
    27    25    26   ar
    28    26    27   ar
    29    27    28   ar
    30    28    29    1
    31    21    30    1
    32    30    31    2
    33     6     1   ar
    34    13     8   ar
    35    30    18   am
    36    29     4    1
    37    17    11    1
    38    28    24   ar
    39    22    32    1
@<TRIPOS>MOLECULE
*****
 34 39 0 0 0
SMALL
GASTEIGER

@<TRIPOS>ATOM
      1 C         142.3368  137.7205  154.9526 C.ar    1  UNL1        0.1028
      2 C         142.7456  136.5506  155.7976 C.ar    1  UNL1        0.0131
      3 C         142.7995  136.6862  157.2905 C.ar    1  UNL1       -0.0015
      4 C         142.5058  137.8546  158.2481 C.ar    1  UNL1        0.0035
      5 C         142.3130  138.1857  156.7979 C.ar    1  UNL1        0.0358
      6 C         141.9817  139.0260  155.6003 C.ar    1  UNL1        0.1545
      7 O         141.5624  140.2477  154.8379 O.3     1  UNL1       -0.4528
      8 C         141.1187  141.6650  154.6265 C.ar    1  UNL1        0.1450
      9 C         140.7155  142.7192  153.3187 C.ar    1  UNL1        0.0372
     10 C         140.2790  144.1541  153.3036 C.ar    1  UNL1       -0.0014
     11 C         140.1326  144.9070  154.5927 C.ar    1  UNL1       -0.0244
     12 C         140.4224  144.2259  155.8973 C.ar    1  UNL1       -0.0052
     13 C         140.7184  143.0619  154.9986 C.ar    1  UNL1        0.0345
     14 C         140.2756  144.9796  157.1858 C.3     1  UNL1        0.0977
     15 C         139.8390  146.4146  157.1698 C.3     1  UNL1        0.0247
     16 C         139.5492  147.0958  155.8652 C.3     1  UNL1        0.0067
     17 C         139.6960  146.3420  154.5767 C.3     1  UNL1        0.0262
     18 N         140.3005  145.2084  158.6681 N.am    1  UNL1       -0.2763
     19 C         140.0455  146.2654  159.7013 C.3     1  UNL1        0.0956
     20 C         140.3127  145.6683  161.0511 C.3     1  UNL1        0.0466
     21 C         140.8246  144.0370  161.3159 C.3     1  UNL1        0.1337
     22 N         141.2440  142.8152  162.0783 N.3     1  UNL1       -0.2863
     23 C         141.6877  141.3980  162.2896 C.3     1  UNL1        0.1151
     24 C         142.0880  140.0011  161.9176 C.ar    1  UNL1        0.0739
     25 C         142.3116  139.5615  163.3342 C.ar    1  UNL1        0.1147
     26 N         142.7458  138.1260  163.3110 N.ar    1  UNL1       -0.2226
     27 C         142.7906  137.6783  161.8801 C.ar    1  UNL1        0.1786
     28 N         142.3840  138.8372  161.0189 N.ar    1  UNL1       -0.3070
     29 C         142.5308  138.0834  159.7303 C.3     1  UNL1        0.1341
     30 C         140.4933  144.8774  160.1184 C.2     1  UNL1        0.2401
     31 O         140.2759  145.6274  160.2788 O.2     1  UNL1       -0.2734
     32 H         140.4242  142.7704  162.6835 H       1  UNL1        0.1240
     33 N         142.2289  137.4493  151.9668 N.1     1  UNL1       -0.1907
     34 C         142.2829  137.5849  153.4596 C.1     1  UNL1        0.1035
@<TRIPOS>BOND
     1    33    34    3
     2    34     1    1
     3     1     2   ar
     4     2     3   ar
     5     3     4   ar
     6     4     5   ar
     7     5     6   ar
     8     6     7    1
     9     7     8    1
    10     8     9   ar
    11     9    10   ar
    12    10    11   ar
    13    11    12   ar
    14    12    13   ar
    15    12    14    1
    16    14    15    1
    17    15    16    1
    18    16    17    1
    19    14    18    1
    20    18    19    1
    21    19    20    1
    22    21    20    1
    23    21    22    1
    24    22    23    1
    25    23    24    1
    26    24    25   ar
    27    25    26   ar
    28    26    27   ar
    29    27    28   ar
    30    28    29    1
    31    21    30    1
    32    30    31    2
    33     6     1   ar
    34    13     8   ar
    35    30    18   am
    36    29     4    1
    37    17    11    1
    38    28    24   ar
    39    22    32    1
@<TRIPOS>MOLECULE
*****
 34 39 0 0 0
SMALL
GASTEIGER

@<TRIPOS>ATOM
      1 C         140.5736  145.4231  154.9583 C.ar    1  UNL1        0.1028
      2 C         140.1456  146.6279  155.7427 C.ar    1  UNL1        0.0131
      3 C         140.0583  146.5569  157.2385 C.ar    1  UNL1       -0.0015
      4 C         140.3308  145.4313  158.2520 C.ar    1  UNL1        0.0035
      5 C         140.5561  145.0381  156.8221 C.ar    1  UNL1        0.0358
      6 C         140.9143  144.1472  155.6697 C.ar    1  UNL1        0.1545
      7 O         141.3509  142.8942  154.9704 O.3     1  UNL1       -0.4528
      8 C         141.7995  141.4696  154.8305 C.ar    1  UNL1        0.1450
      9 C         142.2322  140.3604  153.5788 C.ar    1  UNL1        0.0372
     10 C         142.6692  138.9266  153.6356 C.ar    1  UNL1       -0.0014
     11 C         142.7870  138.2303  154.9590 C.ar    1  UNL1       -0.0244
     12 C         142.4679  138.9669  156.2261 C.ar    1  UNL1       -0.0052
     13 C         142.1917  140.0906  155.2715 C.ar    1  UNL1        0.0345
     14 C         142.5859  138.2698  157.5490 C.3     1  UNL1        0.0977
     15 C         143.0231  136.8360  157.6048 C.3     1  UNL1        0.0247
     16 C         143.3422  136.0994  156.3377 C.3     1  UNL1        0.0067
     17 C         143.2242  136.7965  155.0148 C.3     1  UNL1        0.0262
     18 N         142.5279  138.1053  159.0388 N.am    1  UNL1       -0.2763
     19 C         142.7600  137.0942  160.1222 C.3     1  UNL1        0.0956
     20 C         142.4626  137.7488  161.4386 C.3     1  UNL1        0.0466
     21 C         141.9444  139.3894  161.6211 C.3     1  UNL1        0.1337
     22 N         141.5077  140.6425  162.3204 N.3     1  UNL1       -0.2863
     23 C         141.0592  142.0670  162.4602 C.3     1  UNL1        0.1151
     24 C         140.6670  143.4461  162.0193 C.ar    1  UNL1        0.0739
     25 C         140.4116  143.9461  163.4102 C.ar    1  UNL1        0.1147
     26 N         139.9776  145.3788  163.3153 N.ar    1  UNL1       -0.2226
     27 C         139.9648  145.7642  161.8657 C.ar    1  UNL1        0.1786
     28 N         140.3908  144.5697  161.0647 N.ar    1  UNL1       -0.3070
     29 C         140.2728  145.2668  159.7418 C.3     1  UNL1        0.1341
     30 C         142.3026  138.4984  160.4687 C.2     1  UNL1        0.2401
     31 O         142.5166  137.7563  160.6663 O.2     1  UNL1       -0.2734
     32 H         142.3138  140.7144  162.9413 H       1  UNL1        0.1240
     33 N         140.7482  145.5649  151.9668 N.1     1  UNL1       -0.1907
     34 C         140.6608  145.4941  153.4625 C.1     1  UNL1        0.1035
@<TRIPOS>BOND
     1    33    34    3
     2    34     1    1
     3     1     2   ar
     4     2     3   ar
     5     3     4   ar
     6     4     5   ar
     7     5     6   ar
     8     6     7    1
     9     7     8    1
    10     8     9   ar
    11     9    10   ar
    12    10    11   ar
    13    11    12   ar
    14    12    13   ar
    15    12    14    1
    16    14    15    1
    17    15    16    1
    18    16    17    1
    19    14    18    1
    20    18    19    1
    21    19    20    1
    22    21    20    1
    23    21    22    1
    24    22    23    1
    25    23    24    1
    26    24    25   ar
    27    25    26   ar
    28    26    27   ar
    29    27    28   ar
    30    28    29    1
    31    21    30    1
    32    30    31    2
    33     6     1   ar
    34    13     8   ar
    35    30    18   am
    36    29     4    1
    37    17    11    1
    38    28    24   ar
    39    22    32    1
@<TRIPOS>MOLECULE
*****
 34 39 0 0 0
SMALL
GASTEIGER

@<TRIPOS>ATOM
      1 C         139.3787  139.0807  155.0522 C.ar    1  UNL1        0.1028
      2 C         140.2725  139.1180  153.8483 C.ar    1  UNL1        0.0131
      3 C         141.6520  139.6971  153.9559 C.ar    1  UNL1       -0.0015
      4 C         142.4389  140.3206  155.1223 C.ar    1  UNL1        0.0035
      5 C         141.0569  139.8659  155.4873 C.ar    1  UNL1        0.0358
      6 C         139.8643  139.6225  156.3640 C.ar    1  UNL1        0.1545
      7 O         139.0429  139.6276  157.6189 O.3     1  UNL1       -0.4528
      8 C         138.7174  139.8804  159.0613 C.ar    1  UNL1        0.1450
      9 C         137.4027  139.6464  160.1572 C.ar    1  UNL1        0.0372
     10 C         137.2586  139.9753  161.6135 C.ar    1  UNL1       -0.0014
     11 C         138.3922  140.6236  162.3516 C.ar    1  UNL1       -0.0244
     12 C         139.6701  140.9433  161.6343 C.ar    1  UNL1       -0.0052
     13 C         138.9378  140.3424  160.4712 C.ar    1  UNL1        0.0345
     14 C         140.8031  141.5916  162.3733 C.3     1  UNL1        0.0977
     15 C         140.6582  141.9201  163.8296 C.3     1  UNL1        0.0247
     16 C         139.3803  141.6004  164.5470 C.3     1  UNL1        0.0067
     17 C         138.2473  140.9522  163.8080 C.3     1  UNL1        0.0262
     18 N         142.1643  142.1885  162.5757 N.am    1  UNL1       -0.2763
     19 C         143.0318  142.8139  163.6275 C.3     1  UNL1        0.0956
     20 C         144.3442  143.1698  162.9946 C.3     1  UNL1        0.0466
     21 C         144.7388  142.8867  161.3340 C.3     1  UNL1        0.1337
     22 N         145.5603  142.8816  160.0790 N.3     1  UNL1       -0.2863
     23 C         145.8857  142.6288  158.6367 C.3     1  UNL1        0.1151
     24 C         145.6654  142.1667  157.2267 C.ar    1  UNL1        0.0739
     25 C         147.0259  142.5839  156.7523 C.ar    1  UNL1        0.1147
     26 N         147.1343  142.2408  155.2961 N.ar    1  UNL1       -0.2226
     27 C         145.8409  141.6116  154.8705 C.ar    1  UNL1        0.1786
     28 N         144.9330  141.5659  156.0637 N.ar    1  UNL1       -0.3070
     29 C         143.8000  140.9176  155.3247 C.3     1  UNL1        0.1341
     30 C         143.5463  142.6433  162.2108 C.2     1  UNL1        0.2401
     31 O         143.6280  142.8770  162.9685 O.2     1  UNL1       -0.2734
     32 H         146.3593  142.3798  160.4666 H       1  UNL1        0.1240
     33 N         136.6197  137.9224  154.8371 N.1     1  UNL1       -0.1907
     34 C         137.9992  138.5015  154.9446 C.1     1  UNL1        0.1035
@<TRIPOS>BOND
     1    33    34    3
     2    34     1    1
     3     1     2   ar
     4     2     3   ar
     5     3     4   ar
     6     4     5   ar
     7     5     6   ar
     8     6     7    1
     9     7     8    1
    10     8     9   ar
    11     9    10   ar
    12    10    11   ar
    13    11    12   ar
    14    12    13   ar
    15    12    14    1
    16    14    15    1
    17    15    16    1
    18    16    17    1
    19    14    18    1
    20    18    19    1
    21    19    20    1
    22    21    20    1
    23    21    22    1
    24    22    23    1
    25    23    24    1
    26    24    25   ar
    27    25    26   ar
    28    26    27   ar
    29    27    28   ar
    30    28    29    1
    31    21    30    1
    32    30    31    2
    33     6     1   ar
    34    13     8   ar
    35    30    18   am
    36    29     4    1
    37    17    11    1
    38    28    24   ar
    39    22    32    1
@<TRIPOS>MOLECULE
*****
 34 39 0 0 0
SMALL
GASTEIGER

@<TRIPOS>ATOM
      1 C         143.3134  139.9755  161.6984 C.ar    1  UNL1        0.1028
      2 C         143.7250  138.5348  161.7667 C.ar    1  UNL1        0.0131
      3 C         143.4925  137.6318  160.5918 C.ar    1  UNL1       -0.0015
      4 C         142.8720  137.8590  159.2019 C.ar    1  UNL1        0.0035
      5 C         142.8963  139.0813  160.0710 C.ar    1  UNL1        0.0358
      6 C         142.6692  140.5134  160.4552 C.ar    1  UNL1        0.1545
      7 O         142.2254  141.9373  160.2956 O.3     1  UNL1       -0.4528
      8 C         141.6323  143.1363  159.6168 C.ar    1  UNL1        0.1450
      9 C         141.3249  144.8021  159.9561 C.ar    1  UNL1        0.0372
     10 C         140.7013  145.8822  159.1229 C.ar    1  UNL1       -0.0014
     11 C         140.2235  145.5767  157.7342 C.ar    1  UNL1       -0.0244
     12 C         140.3687  144.1913  157.1780 C.ar    1  UNL1       -0.0052
     13 C         140.9804  143.9277  158.5221 C.ar    1  UNL1        0.0345
     14 C         139.8905  143.8866  155.7892 C.3     1  UNL1        0.0977
     15 C         139.2671  144.9675  154.9567 C.3     1  UNL1        0.0247
     16 C         139.1218  146.3529  155.5130 C.3     1  UNL1        0.0067
     17 C         139.6000  146.6575  156.9017 C.3     1  UNL1        0.0262
     18 N         139.6186  143.0603  154.5673 N.am    1  UNL1       -0.2763
     19 C         139.0379  143.1536  153.1874 C.3     1  UNL1        0.0956
     20 C         139.1413  141.8004  152.5485 C.3     1  UNL1        0.0466
     21 C         139.8214  140.4059  153.3140 C.3     1  UNL1        0.1337
     22 N         140.2653  138.9820  153.4735 N.3     1  UNL1       -0.2863
     23 C         140.8583  137.7830  154.1524 C.3     1  UNL1        0.1151
     24 C         141.5103  136.9915  155.2471 C.ar    1  UNL1        0.0739
     25 C         141.5372  135.7109  154.4665 C.ar    1  UNL1        0.1147
     26 N         142.1655  134.6560  155.3281 N.ar    1  UNL1       -0.2226
     27 C         142.5269  135.2846  156.6412 C.ar    1  UNL1        0.1786
     28 N         142.1219  136.7281  156.5912 N.ar    1  UNL1       -0.3070
     29 C         142.6001  137.0327  157.9799 C.3     1  UNL1        0.1341
     30 C         139.5943  141.8380  153.6981 C.2     1  UNL1        0.2401
     31 O         139.2489  142.2893  153.1391 O.2     1  UNL1       -0.2734
     32 H         140.8651  138.9555  152.6489 H       1  UNL1        0.1240
     33 N         143.7784  141.7816  164.0483 N.1     1  UNL1       -0.1907
     34 C         143.5459  140.8786  162.8734 C.1     1  UNL1        0.1035
@<TRIPOS>BOND
     1    33    34    3
     2    34     1    1
     3     1     2   ar
     4     2     3   ar
     5     3     4   ar
     6     4     5   ar
     7     5     6   ar
     8     6     7    1
     9     7     8    1
    10     8     9   ar
    11     9    10   ar
    12    10    11   ar
    13    11    12   ar
    14    12    13   ar
    15    12    14    1
    16    14    15    1
    17    15    16    1
    18    16    17    1
    19    14    18    1
    20    18    19    1
    21    19    20    1
    22    21    20    1
    23    21    22    1
    24    22    23    1
    25    23    24    1
    26    24    25   ar
    27    25    26   ar
    28    26    27   ar
    29    27    28   ar
    30    28    29    1
    31    21    30    1
    32    30    31    2
    33     6     1   ar
    34    13     8   ar
    35    30    18   am
    36    29     4    1
    37    17    11    1
    38    28    24   ar
    39    22    32    1
