@<TRIPOS>MOLECULE
*****
 37 42 0 0 0
SMALL
GASTEIGER

@<TRIPOS>ATOM
      1 N         139.2640  140.4275  165.1628 N.3     1  UNL1       -0.2690
      2 C         138.3086  141.3685  164.4907 C.3     1  UNL1        0.0741
      3 C         139.1098  142.4615  163.8476 C.3     1  UNL1        0.0373
      4 C         140.5604  142.1960  164.1223 C.3     1  UNL1        0.0410
      5 C         140.6556  140.9390  164.9352 C.3     1  UNL1        0.0768
      6 C         141.7132  143.0395  163.6646 C.ar    1  UNL1       -0.0188
      7 C         141.9660  144.3736  164.3019 C.ar    1  UNL1       -0.0041
      8 C         143.1188  145.2171  163.8442 C.ar    1  UNL1        0.0020
      9 C         144.0189  144.7264  162.7491 C.ar    1  UNL1        0.0296
     10 C         143.7661  143.3922  162.1117 C.ar    1  UNL1        0.1398
     11 F         144.6661  142.9016  161.0167 F       1  UNL1       -0.2042
     12 C         142.6132  142.5488  162.5695 C.ar    1  UNL1        0.0254
     13 C         138.8929  139.1921  165.9282 C.3     1  UNL1        0.0943
     14 O         139.2290  140.2247  168.2885 O.co2   1  UNL1       -0.5478
     15 C         138.4925  139.2950  167.3702 C.2     1  UNL1        0.0648
     16 O         137.3557  138.4683  167.8937 O.co2   1  UNL1       -0.5478
     17 C         138.9221  137.8536  165.2517 C.3     1  UNL1        0.0217
     18 C         139.8209  137.6289  164.0721 C.3     1  UNL1        0.0017
     19 C         139.7025  137.8433  162.5923 C.3     1  UNL1        0.0001
     20 C         141.0922  137.3111  162.4038 C.3     1  UNL1        0.0000
     21 C         141.2107  137.0967  163.8837 C.3     1  UNL1        0.0001
     22 C         138.5575  143.6171  163.0669 C.3     1  UNL1        0.0738
     23 N         139.0844  143.9153  161.6945 N.3     1  UNL1       -0.2726
     24 C         139.8213  145.1960  161.4359 C.3     1  UNL1        0.0725
     25 C         140.3482  145.4942  160.0635 C.3     1  UNL1        0.0233
     26 C         140.1382  144.5116  158.9497 C.3     1  UNL1        0.0430
     27 C         139.4014  143.2310  159.2083 C.3     1  UNL1        0.0233
     28 C         138.8745  142.9328  160.5807 C.3     1  UNL1        0.0725
     29 C         140.6651  144.8098  157.5773 C.ar    1  UNL1        0.0616
     30 C         141.7405  144.0480  156.8610 C.ar    1  UNL1        0.1135
     31 N         141.9491  144.6896  155.5213 N.ar    1  UNL1       -0.2253
     32 C         141.0026  145.8479  155.4096 C.ar    1  UNL1        0.1476
     33 C         140.7608  146.8445  154.3149 C.ar    1  UNL1        0.0374
     34 C         139.7255  147.9155  154.4911 C.ar    1  UNL1        0.0046
     35 C         138.9319  147.9898  155.7618 C.ar    1  UNL1        0.0191
     36 C         139.1737  146.9932  156.8564 C.ar    1  UNL1        0.0811
     37 N         140.2090  145.9222  156.6803 N.ar    1  UNL1       -0.2925
@<TRIPOS>UNITY_ATOM_ATTR
14 1
charge -1
@<TRIPOS>BOND
     1    14    15   ar
     2    15    16   ar
     3    15    13    1
     4    13    17    1
     5    17    18    1
     6    18    19    1
     7    19    20    1
     8    20    21    1
     9    13     1    1
    10     1     2    1
    11     2     3    1
    12     3    22    1
    13    22    23    1
    14    23    24    1
    15    24    25    1
    16    25    26    1
    17    26    29    1
    18    29    30   ar
    19    30    31   ar
    20    31    32   ar
    21    32    33   ar
    22    33    34   ar
    23    34    35   ar
    24    35    36   ar
    25    36    37   ar
    26    26    27    1
    27    27    28    1
    28     3     4    1
    29     4     6    1
    30     6     7   ar
    31     7     8   ar
    32     8     9   ar
    33     9    10   ar
    34    10    11    1
    35    10    12   ar
    36     4     5    1
    37    21    18    1
    38     5     1    1
    39    28    23    1
    40    12     6   ar
    41    37    29   ar
    42    37    32   ar
@<TRIPOS>MOLECULE
*****
 37 42 0 0 0
SMALL
GASTEIGER

@<TRIPOS>ATOM
      1 N         140.6331  142.0503  167.9555 N.3     1  UNL1       -0.2690
      2 C         140.0915  143.0642  166.9919 C.3     1  UNL1        0.0741
      3 C         141.0052  143.1083  165.8031 C.3     1  UNL1        0.0373
      4 C         142.1116  142.1217  166.0320 C.3     1  UNL1        0.0410
      5 C         141.8817  141.4678  167.3622 C.3     1  UNL1        0.0768
      6 C         143.2484  141.8386  165.0952 C.ar    1  UNL1       -0.0188
      7 C         144.3840  142.8115  164.9783 C.ar    1  UNL1       -0.0041
      8 C         145.5208  142.5285  164.0415 C.ar    1  UNL1        0.0020
      9 C         145.5219  141.2724  163.2215 C.ar    1  UNL1        0.0296
     10 C         144.3862  140.2994  163.3383 C.ar    1  UNL1        0.1398
     11 F         144.3874  139.0435  162.5183 F       1  UNL1       -0.2042
     12 C         143.2494  140.5826  164.2752 C.ar    1  UNL1        0.0254
     13 C         140.0319  141.6833  169.2798 C.3     1  UNL1        0.0943
     14 O         139.9587  144.0873  170.2624 O.co2   1  UNL1       -0.5478
     15 C         140.1674  142.6136  170.4486 C.2     1  UNL1        0.0648
     16 O         140.5118  142.0702  171.8036 O.co2   1  UNL1       -0.5478
     17 C         139.2951  140.3860  169.4353 C.3     1  UNL1        0.0217
     18 C         138.7821  139.6650  168.2241 C.3     1  UNL1        0.0017
     19 C         139.2363  139.5249  166.8015 C.3     1  UNL1        0.0001
     20 C         138.0565  138.6452  166.5113 C.3     1  UNL1        0.0000
     21 C         137.6023  138.7853  167.9340 C.3     1  UNL1        0.0001
     22 C         140.8414  143.9851  164.5971 C.3     1  UNL1        0.0738
     23 N         140.2983  143.4123  163.3216 N.3     1  UNL1       -0.2726
     24 C         141.2250  143.1067  162.1824 C.3     1  UNL1        0.0725
     25 C         140.6819  142.5339  160.9068 C.3     1  UNL1        0.0233
     26 C         139.2121  142.2668  160.7705 C.3     1  UNL1        0.0430
     27 C         138.2856  142.5724  161.9097 C.3     1  UNL1        0.0233
     28 C         138.8286  143.1452  163.1853 C.3     1  UNL1        0.0725
     29 C         138.6691  141.6940  159.4949 C.ar    1  UNL1        0.0616
     30 C         137.9200  140.4017  159.3573 C.ar    1  UNL1        0.1135
     31 N         137.5678  140.2220  157.9104 N.ar    1  UNL1       -0.2253
     32 C         138.0991  141.4032  157.1538 C.ar    1  UNL1        0.1476
     33 C         138.0510  141.7680  155.6996 C.ar    1  UNL1        0.0374
     34 C         138.6836  143.0424  155.2248 C.ar    1  UNL1        0.0046
     35 C         139.3642  143.9522  156.2041 C.ar    1  UNL1        0.0191
     36 C         139.4123  143.5875  157.6583 C.ar    1  UNL1        0.0811
     37 N         138.7797  142.3130  158.1331 N.ar    1  UNL1       -0.2925
@<TRIPOS>UNITY_ATOM_ATTR
14 1
charge -1
@<TRIPOS>BOND
     1    14    15   ar
     2    15    16   ar
     3    15    13    1
     4    13    17    1
     5    17    18    1
     6    18    19    1
     7    19    20    1
     8    20    21    1
     9    13     1    1
    10     1     2    1
    11     2     3    1
    12     3    22    1
    13    22    23    1
    14    23    24    1
    15    24    25    1
    16    25    26    1
    17    26    29    1
    18    29    30   ar
    19    30    31   ar
    20    31    32   ar
    21    32    33   ar
    22    33    34   ar
    23    34    35   ar
    24    35    36   ar
    25    36    37   ar
    26    26    27    1
    27    27    28    1
    28     3     4    1
    29     4     6    1
    30     6     7   ar
    31     7     8   ar
    32     8     9   ar
    33     9    10   ar
    34    10    11    1
    35    10    12   ar
    36     4     5    1
    37    21    18    1
    38     5     1    1
    39    28    23    1
    40    12     6   ar
    41    37    29   ar
    42    37    32   ar
@<TRIPOS>MOLECULE
*****
 37 42 0 0 0
SMALL
GASTEIGER

@<TRIPOS>ATOM
      1 N         139.2739  140.3294  165.2634 N.3     1  UNL1       -0.2690
      2 C         138.3366  141.3591  164.7057 C.3     1  UNL1        0.0741
      3 C         139.1596  142.4299  164.0528 C.3     1  UNL1        0.0373
      4 C         140.6055  142.0620  164.2070 C.3     1  UNL1        0.0410
      5 C         140.6762  140.7638  164.9552 C.3     1  UNL1        0.0768
      6 C         141.7754  142.8532  163.7018 C.ar    1  UNL1       -0.0188
      7 C         142.3464  142.5645  162.3451 C.ar    1  UNL1       -0.0041
      8 C         143.5163  143.3557  161.8399 C.ar    1  UNL1        0.0020
      9 C         144.1152  144.4358  162.6914 C.ar    1  UNL1        0.0296
     10 C         143.5442  144.7245  164.0481 C.ar    1  UNL1        0.1398
     11 F         144.1430  145.8045  164.8994 F       1  UNL1       -0.2042
     12 C         142.3742  143.9332  164.5533 C.ar    1  UNL1        0.0254
     13 C         138.8784  139.0840  165.9999 C.3     1  UNL1        0.0943
     14 O         137.2292  138.3761  167.8784 O.co2   1  UNL1       -0.5478
     15 C         138.4187  139.1696  167.4252 C.2     1  UNL1        0.0648
     16 O         139.1484  140.0486  168.3970 O.co2   1  UNL1       -0.5478
     17 C         138.9428  137.7530  165.3112 C.3     1  UNL1        0.0217
     18 C         139.8395  137.5656  164.1235 C.3     1  UNL1        0.0017
     19 C         139.6801  137.7169  162.6397 C.3     1  UNL1        0.0001
     20 C         141.1078  137.3005  162.4438 C.3     1  UNL1        0.0000
     21 C         141.2672  137.1492  163.9276 C.3     1  UNL1        0.0001
     22 C         138.6296  143.6538  163.3663 C.3     1  UNL1        0.0738
     23 N         139.1242  144.0197  161.9983 N.3     1  UNL1       -0.2726
     24 C         138.9113  143.0810  160.8479 C.3     1  UNL1        0.0725
     25 C         139.4059  143.4470  159.4798 C.3     1  UNL1        0.0233
     26 C         140.1133  144.7518  159.2622 C.3     1  UNL1        0.0430
     27 C         140.3261  145.6904  160.4126 C.3     1  UNL1        0.0233
     28 C         139.8315  145.3244  161.7807 C.3     1  UNL1        0.0725
     29 C         140.6078  145.1177  157.8942 C.ar    1  UNL1        0.0616
     30 C         140.1267  146.2689  157.0615 C.ar    1  UNL1        0.1135
     31 N         140.8919  146.2594  155.7714 N.ar    1  UNL1       -0.2253
     32 C         141.8458  145.1023  155.8067 C.ar    1  UNL1        0.1476
     33 C         142.8517  144.6001  154.8137 C.ar    1  UNL1        0.0374
     34 C         143.6819  143.3923  155.1327 C.ar    1  UNL1        0.0046
     35 C         143.5063  142.6867  156.4447 C.ar    1  UNL1        0.0191
     36 C         142.5005  143.1889  157.4377 C.ar    1  UNL1        0.0811
     37 N         141.6703  144.3968  157.1187 N.ar    1  UNL1       -0.2925
@<TRIPOS>UNITY_ATOM_ATTR
14 1
charge -1
@<TRIPOS>BOND
     1    14    15   ar
     2    15    16   ar
     3    15    13    1
     4    13    17    1
     5    17    18    1
     6    18    19    1
     7    19    20    1
     8    20    21    1
     9    13     1    1
    10     1     2    1
    11     2     3    1
    12     3    22    1
    13    22    23    1
    14    23    24    1
    15    24    25    1
    16    25    26    1
    17    26    29    1
    18    29    30   ar
    19    30    31   ar
    20    31    32   ar
    21    32    33   ar
    22    33    34   ar
    23    34    35   ar
    24    35    36   ar
    25    36    37   ar
    26    26    27    1
    27    27    28    1
    28     3     4    1
    29     4     6    1
    30     6     7   ar
    31     7     8   ar
    32     8     9   ar
    33     9    10   ar
    34    10    11    1
    35    10    12   ar
    36     4     5    1
    37    21    18    1
    38     5     1    1
    39    28    23    1
    40    12     6   ar
    41    37    29   ar
    42    37    32   ar
@<TRIPOS>MOLECULE
*****
 37 42 0 0 0
SMALL
GASTEIGER

@<TRIPOS>ATOM
      1 N         138.3159  141.4613  158.8602 N.3     1  UNL1       -0.2690
      2 C         138.0322  140.2310  159.6701 C.3     1  UNL1        0.0741
      3 C         138.1657  140.5898  161.1204 C.3     1  UNL1        0.0373
      4 C         138.5320  142.0418  161.2069 C.3     1  UNL1        0.0410
      5 C         138.6248  142.5805  159.8101 C.3     1  UNL1        0.0768
      6 C         138.7646  142.8188  162.4687 C.ar    1  UNL1       -0.0188
      7 C         137.5981  143.3465  163.2504 C.ar    1  UNL1       -0.0041
      8 C         137.8307  144.1235  164.5122 C.ar    1  UNL1        0.0020
      9 C         139.2298  144.3729  164.9924 C.ar    1  UNL1        0.0296
     10 C         140.3963  143.8452  164.2107 C.ar    1  UNL1        0.1398
     11 F         141.7952  144.0946  164.6908 F       1  UNL1       -0.2042
     12 C         140.1636  143.0682  162.9488 C.ar    1  UNL1        0.0254
     13 C         138.2946  141.5559  157.3634 C.3     1  UNL1        0.0943
     14 O         138.0036  139.7931  155.4771 O.co2   1  UNL1       -0.5478
     15 C         137.4143  140.6393  156.5665 C.2     1  UNL1        0.0648
     16 O         135.9448  140.5690  156.8589 O.co2   1  UNL1       -0.5478
     17 C         139.1534  142.5670  156.6634 C.3     1  UNL1        0.0217
     18 C         138.5194  143.7222  155.9469 C.3     1  UNL1        0.0017
     19 C         137.1658  143.9925  155.3599 C.3     1  UNL1        0.0001
     20 C         137.6228  145.3561  154.9336 C.3     1  UNL1        0.0000
     21 C         138.9765  145.0858  155.5205 C.3     1  UNL1        0.0001
     22 C         137.9678  139.6599  162.2806 C.3     1  UNL1        0.0738
     23 N         138.8232  139.7959  163.5053 N.3     1  UNL1       -0.2726
     24 C         140.3028  139.5665  163.4159 C.3     1  UNL1        0.0725
     25 C         141.1582  139.7025  164.6406 C.3     1  UNL1        0.0233
     26 C         140.5339  140.0680  165.9547 C.3     1  UNL1        0.0430
     27 C         139.0543  140.2974  166.0440 C.3     1  UNL1        0.0233
     28 C         138.1989  140.1614  164.8193 C.3     1  UNL1        0.0725
     29 C         141.3892  140.2040  167.1794 C.ar    1  UNL1        0.0616
     30 C         142.4401  139.2345  167.6330 C.ar    1  UNL1        0.1135
     31 N         143.0442  139.7647  168.8994 N.ar    1  UNL1       -0.2253
     32 C         142.3667  141.0619  169.2285 C.ar    1  UNL1        0.1476
     33 C         142.5490  142.0310  170.3589 C.ar    1  UNL1        0.0374
     34 C         141.7085  143.2715  170.4262 C.ar    1  UNL1        0.0046
     35 C         140.6856  143.5429  169.3631 C.ar    1  UNL1        0.0191
     36 C         140.5033  142.5739  168.2328 C.ar    1  UNL1        0.0811
     37 N         141.3439  141.3334  168.1655 N.ar    1  UNL1       -0.2925
@<TRIPOS>UNITY_ATOM_ATTR
14 1
charge -1
@<TRIPOS>BOND
     1    14    15   ar
     2    15    16   ar
     3    15    13    1
     4    13    17    1
     5    17    18    1
     6    18    19    1
     7    19    20    1
     8    20    21    1
     9    13     1    1
    10     1     2    1
    11     2     3    1
    12     3    22    1
    13    22    23    1
    14    23    24    1
    15    24    25    1
    16    25    26    1
    17    26    29    1
    18    29    30   ar
    19    30    31   ar
    20    31    32   ar
    21    32    33   ar
    22    33    34   ar
    23    34    35   ar
    24    35    36   ar
    25    36    37   ar
    26    26    27    1
    27    27    28    1
    28     3     4    1
    29     4     6    1
    30     6     7   ar
    31     7     8   ar
    32     8     9   ar
    33     9    10   ar
    34    10    11    1
    35    10    12   ar
    36     4     5    1
    37    21    18    1
    38     5     1    1
    39    28    23    1
    40    12     6   ar
    41    37    29   ar
    42    37    32   ar
@<TRIPOS>MOLECULE
*****
 37 42 0 0 0
SMALL
GASTEIGER

@<TRIPOS>ATOM
      1 N         140.8539  142.1358  167.1701 N.3     1  UNL1       -0.2690
      2 C         142.2936  142.2292  166.7599 C.3     1  UNL1        0.0741
      3 C         142.3427  142.7639  165.3592 C.3     1  UNL1        0.0373
      4 C         140.9334  143.0009  164.9039 C.3     1  UNL1        0.0410
      5 C         140.0132  142.6128  166.0230 C.3     1  UNL1        0.0768
      6 C         140.5172  143.5328  163.5645 C.ar    1  UNL1       -0.0188
      7 C         140.3161  142.5921  162.4135 C.ar    1  UNL1       -0.0041
      8 C         139.8999  143.1239  161.0741 C.ar    1  UNL1        0.0020
      9 C         139.6848  144.5965  160.8857 C.ar    1  UNL1        0.0296
     10 C         139.8859  145.5371  162.0367 C.ar    1  UNL1        0.1398
     11 F         139.6709  147.0096  161.8482 F       1  UNL1       -0.2042
     12 C         140.3021  145.0053  163.3761 C.ar    1  UNL1        0.0254
     13 C         140.3443  141.6506  168.4949 C.3     1  UNL1        0.0943
     14 O         140.7714  142.0196  171.0309 O.co2   1  UNL1       -0.5478
     15 C         140.3749  142.5586  169.6884 C.2     1  UNL1        0.0648
     16 O         140.0090  144.0057  169.5394 O.co2   1  UNL1       -0.5478
     17 C         139.8040  140.2575  168.6260 C.3     1  UNL1        0.0217
     18 C         139.2460  139.5533  167.4249 C.3     1  UNL1        0.0017
     19 C         137.9095  138.9801  167.0573 C.3     1  UNL1        0.0001
     20 C         138.4569  138.5573  165.7262 C.3     1  UNL1        0.0000
     21 C         139.7934  139.1305  166.0939 C.3     1  UNL1        0.0001
     22 C         143.5834  143.0171  164.5551 C.3     1  UNL1        0.0738
     23 N         143.7015  142.4665  163.1649 N.3     1  UNL1       -0.2726
     24 C         143.8261  140.9868  162.9523 C.3     1  UNL1        0.0725
     25 C         143.9442  140.4362  161.5620 C.3     1  UNL1        0.0233
     26 C         143.9377  141.3653  160.3842 C.3     1  UNL1        0.0430
     27 C         143.8131  142.8448  160.5969 C.3     1  UNL1        0.0233
     28 C         143.6950  143.3954  161.9872 C.3     1  UNL1        0.0725
     29 C         144.0558  140.8147  158.9940 C.ar    1  UNL1        0.0616
     30 C         143.2650  139.6727  158.4278 C.ar    1  UNL1        0.1135
     31 N         143.7059  139.4617  157.0097 N.ar    1  UNL1       -0.2253
     32 C         144.7692  140.4731  156.6994 C.ar    1  UNL1        0.1476
     33 C         145.5685  140.7408  155.4587 C.ar    1  UNL1        0.0374
     34 C         146.5840  141.8446  155.4443 C.ar    1  UNL1        0.0046
     35 C         146.8002  142.6808  156.6706 C.ar    1  UNL1        0.0191
     36 C         146.0010  142.4132  157.9114 C.ar    1  UNL1        0.0811
     37 N         144.9855  141.3094  157.9258 N.ar    1  UNL1       -0.2925
@<TRIPOS>UNITY_ATOM_ATTR
14 1
charge -1
@<TRIPOS>BOND
     1    14    15   ar
     2    15    16   ar
     3    15    13    1
     4    13    17    1
     5    17    18    1
     6    18    19    1
     7    19    20    1
     8    20    21    1
     9    13     1    1
    10     1     2    1
    11     2     3    1
    12     3    22    1
    13    22    23    1
    14    23    24    1
    15    24    25    1
    16    25    26    1
    17    26    29    1
    18    29    30   ar
    19    30    31   ar
    20    31    32   ar
    21    32    33   ar
    22    33    34   ar
    23    34    35   ar
    24    35    36   ar
    25    36    37   ar
    26    26    27    1
    27    27    28    1
    28     3     4    1
    29     4     6    1
    30     6     7   ar
    31     7     8   ar
    32     8     9   ar
    33     9    10   ar
    34    10    11    1
    35    10    12   ar
    36     4     5    1
    37    21    18    1
    38     5     1    1
    39    28    23    1
    40    12     6   ar
    41    37    29   ar
    42    37    32   ar
@<TRIPOS>MOLECULE
*****
 37 42 0 0 0
SMALL
GASTEIGER

@<TRIPOS>ATOM
      1 N         140.3827  142.4220  167.2379 N.3     1  UNL1       -0.2690
      2 C         139.4541  143.3651  166.5321 C.3     1  UNL1        0.0741
      3 C         140.1067  143.7839  165.2480 C.3     1  UNL1        0.0373
      4 C         141.4386  143.0996  165.1603 C.3     1  UNL1        0.0410
      5 C         141.6092  142.2579  166.3901 C.3     1  UNL1        0.0768
      6 C         142.4265  143.2335  164.0395 C.ar    1  UNL1       -0.0188
      7 C         143.2604  144.4745  163.9190 C.ar    1  UNL1       -0.0041
      8 C         144.2483  144.6084  162.7983 C.ar    1  UNL1        0.0020
      9 C         144.4024  143.5012  161.7980 C.ar    1  UNL1        0.0296
     10 C         143.5685  142.2601  161.9185 C.ar    1  UNL1        0.1398
     11 F         143.7226  141.1531  160.9183 F       1  UNL1       -0.2042
     12 C         142.5805  142.1263  163.0393 C.ar    1  UNL1        0.0254
     13 C         140.1293  141.7594  168.5595 C.3     1  UNL1        0.0943
     14 O         140.1032  144.0657  169.7554 O.co2   1  UNL1       -0.5478
     15 C         140.1604  142.5683  169.8223 C.2     1  UNL1        0.0648
     16 O         140.2487  141.8797  171.1520 O.co2   1  UNL1       -0.5478
     17 C         139.8448  140.2878  168.6183 C.3     1  UNL1        0.0217
     18 C         139.2019  139.6009  167.4501 C.3     1  UNL1        0.0017
     19 C         139.6006  139.3257  166.0305 C.3     1  UNL1        0.0001
     20 C         138.2925  138.6294  165.7980 C.3     1  UNL1        0.0000
     21 C         137.8938  138.9045  167.2176 C.3     1  UNL1        0.0001
     22 C         139.5288  144.7222  164.2304 C.3     1  UNL1        0.0738
     23 N         139.7394  144.4645  162.7677 N.3     1  UNL1       -0.2726
     24 C         140.4690  145.4696  161.9266 C.3     1  UNL1        0.0725
     25 C         140.6796  145.2119  160.4639 C.3     1  UNL1        0.0233
     26 C         140.1606  143.9491  159.8424 C.3     1  UNL1        0.0430
     27 C         139.4310  142.9442  160.6836 C.3     1  UNL1        0.0233
     28 C         139.2204  143.2018  162.1463 C.3     1  UNL1        0.0725
     29 C         140.3712  143.6915  158.3798 C.ar    1  UNL1        0.0616
     30 C         140.7509  142.3786  157.7615 C.ar    1  UNL1        0.1135
     31 N         140.8534  142.5773  156.2783 N.ar    1  UNL1       -0.2253
     32 C         140.5371  144.0129  155.9799 C.ar    1  UNL1        0.1476
     33 C         140.4819  144.7820  154.6933 C.ar    1  UNL1        0.0374
     34 C         140.1287  146.2397  154.7055 C.ar    1  UNL1        0.0046
     35 C         139.8307  146.9283  156.0043 C.ar    1  UNL1        0.0191
     36 C         139.8859  146.1592  157.2909 C.ar    1  UNL1        0.0811
     37 N         140.2390  144.7015  157.2787 N.ar    1  UNL1       -0.2925
@<TRIPOS>UNITY_ATOM_ATTR
14 1
charge -1
@<TRIPOS>BOND
     1    14    15   ar
     2    15    16   ar
     3    15    13    1
     4    13    17    1
     5    17    18    1
     6    18    19    1
     7    19    20    1
     8    20    21    1
     9    13     1    1
    10     1     2    1
    11     2     3    1
    12     3    22    1
    13    22    23    1
    14    23    24    1
    15    24    25    1
    16    25    26    1
    17    26    29    1
    18    29    30   ar
    19    30    31   ar
    20    31    32   ar
    21    32    33   ar
    22    33    34   ar
    23    34    35   ar
    24    35    36   ar
    25    36    37   ar
    26    26    27    1
    27    27    28    1
    28     3     4    1
    29     4     6    1
    30     6     7   ar
    31     7     8   ar
    32     8     9   ar
    33     9    10   ar
    34    10    11    1
    35    10    12   ar
    36     4     5    1
    37    21    18    1
    38     5     1    1
    39    28    23    1
    40    12     6   ar
    41    37    29   ar
    42    37    32   ar
@<TRIPOS>MOLECULE
*****
 37 42 0 0 0
SMALL
GASTEIGER

@<TRIPOS>ATOM
      1 N         139.6050  141.0128  165.9298 N.3     1  UNL1       -0.2690
      2 C         138.6862  141.9941  165.2644 C.3     1  UNL1        0.0741
      3 C         139.5101  142.8588  164.3569 C.3     1  UNL1        0.0373
      4 C         140.9381  142.4120  164.4614 C.3     1  UNL1        0.0410
      5 C         140.9968  141.2711  165.4335 C.3     1  UNL1        0.0768
      6 C         142.1030  143.0023  163.7235 C.ar    1  UNL1       -0.0188
      7 C         142.5894  144.3788  164.0679 C.ar    1  UNL1       -0.0041
      8 C         143.7543  144.9691  163.3300 C.ar    1  UNL1        0.0020
      9 C         144.4327  144.1830  162.2475 C.ar    1  UNL1        0.0296
     10 C         143.9463  142.8065  161.9030 C.ar    1  UNL1        0.1398
     11 F         144.6248  142.0204  160.8206 F       1  UNL1       -0.2042
     12 C         142.7814  142.2161  162.6410 C.ar    1  UNL1        0.0254
     13 C         139.2027  139.9585  166.9179 C.3     1  UNL1        0.0943
     14 O         137.2204  138.3608  167.4356 O.co2   1  UNL1       -0.5478
     15 C         138.2853  138.8483  166.4984 C.2     1  UNL1        0.0648
     16 O         138.4328  138.2258  165.1417 O.co2   1  UNL1       -0.5478
     17 C         139.7179  140.0142  168.3255 C.3     1  UNL1        0.0217
     18 C         139.9497  141.3401  168.9875 C.3     1  UNL1        0.0017
     19 C         140.7087  142.5843  168.6330 C.3     1  UNL1        0.0001
     20 C         140.2774  143.2152  169.9237 C.3     1  UNL1        0.0000
     21 C         139.5184  141.9710  170.2782 C.3     1  UNL1        0.0001
     22 C         138.9962  143.9745  163.4960 C.3     1  UNL1        0.0738
     23 N         139.4291  144.0769  162.0635 N.3     1  UNL1       -0.2726
     24 C         139.1685  142.9417  161.1183 C.3     1  UNL1        0.0725
     25 C         139.6014  143.0441  159.6857 C.3     1  UNL1        0.0233
     26 C         140.2949  144.2818  159.1984 C.3     1  UNL1        0.0430
     27 C         140.5554  145.4169  160.1436 C.3     1  UNL1        0.0233
     28 C         140.1225  145.3145  161.5762 C.3     1  UNL1        0.0725
     29 C         140.7278  144.3842  157.7659 C.ar    1  UNL1        0.0616
     30 C         141.6172  143.4171  157.0423 C.ar    1  UNL1        0.1135
     31 N         141.7864  143.9069  155.6347 N.ar    1  UNL1       -0.2253
     32 C         141.0015  145.1768  155.4883 C.ar    1  UNL1        0.1476
     33 C         140.7980  146.1026  154.3258 C.ar    1  UNL1        0.0374
     34 C         139.9403  147.3234  154.4805 C.ar    1  UNL1        0.0046
     35 C         139.2861  147.6183  155.7976 C.ar    1  UNL1        0.0191
     36 C         139.4895  146.6926  156.9601 C.ar    1  UNL1        0.0811
     37 N         140.3473  145.4718  156.8055 N.ar    1  UNL1       -0.2925
@<TRIPOS>UNITY_ATOM_ATTR
14 1
charge -1
@<TRIPOS>BOND
     1    14    15   ar
     2    15    16   ar
     3    15    13    1
     4    13    17    1
     5    17    18    1
     6    18    19    1
     7    19    20    1
     8    20    21    1
     9    13     1    1
    10     1     2    1
    11     2     3    1
    12     3    22    1
    13    22    23    1
    14    23    24    1
    15    24    25    1
    16    25    26    1
    17    26    29    1
    18    29    30   ar
    19    30    31   ar
    20    31    32   ar
    21    32    33   ar
    22    33    34   ar
    23    34    35   ar
    24    35    36   ar
    25    36    37   ar
    26    26    27    1
    27    27    28    1
    28     3     4    1
    29     4     6    1
    30     6     7   ar
    31     7     8   ar
    32     8     9   ar
    33     9    10   ar
    34    10    11    1
    35    10    12   ar
    36     4     5    1
    37    21    18    1
    38     5     1    1
    39    28    23    1
    40    12     6   ar
    41    37    29   ar
    42    37    32   ar
@<TRIPOS>MOLECULE
*****
 37 42 0 0 0
SMALL
GASTEIGER

@<TRIPOS>ATOM
      1 N         141.8742  137.8475  157.6941 N.3     1  UNL1       -0.2690
      2 C         140.4144  138.0573  157.9676 C.3     1  UNL1        0.0741
      3 C         140.2877  138.7977  159.2660 C.3     1  UNL1        0.0373
      4 C         141.6693  139.0455  159.7950 C.3     1  UNL1        0.0410
      5 C         142.6498  138.4583  158.8236 C.3     1  UNL1        0.0768
      6 C         142.0104  139.7558  161.0713 C.ar    1  UNL1       -0.0188
      7 C         141.9977  141.2549  161.1219 C.ar    1  UNL1       -0.0041
      8 C         142.3389  141.9652  162.3982 C.ar    1  UNL1        0.0020
      9 C         142.6927  141.1764  163.6241 C.ar    1  UNL1        0.0296
     10 C         142.7054  139.6773  163.5735 C.ar    1  UNL1        0.1398
     11 F         143.0592  138.8886  164.7993 F       1  UNL1       -0.2042
     12 C         142.3642  138.9670  162.2971 C.ar    1  UNL1        0.0254
     13 C         142.4563  137.1496  156.5008 C.3     1  UNL1        0.0943
     14 O         143.5883  139.1790  155.3388 O.co2   1  UNL1       -0.5478
     15 C         143.6295  137.7463  155.7813 C.2     1  UNL1        0.0648
     16 O         144.8437  136.9104  155.5044 O.co2   1  UNL1       -0.5478
     17 C         141.8653  135.8549  156.0270 C.3     1  UNL1        0.0217
     18 C         142.4745  134.5520  156.4528 C.3     1  UNL1        0.0017
     19 C         143.5281  134.1462  157.4403 C.3     1  UNL1        0.0001
     20 C         143.3360  132.7093  157.0548 C.3     1  UNL1        0.0000
     21 C         142.2824  133.1152  156.0673 C.3     1  UNL1        0.0001
     22 C         139.0047  139.2166  159.9205 C.3     1  UNL1        0.0738
     23 N         138.9008  139.2463  161.4166 N.3     1  UNL1       -0.2726
     24 C         138.6681  140.5470  162.1266 C.3     1  UNL1        0.0725
     25 C         138.5642  140.5767  163.6227 C.3     1  UNL1        0.0233
     26 C         138.6929  139.3056  164.4088 C.3     1  UNL1        0.0430
     27 C         138.9255  138.0051  163.6988 C.3     1  UNL1        0.0233
     28 C         139.0295  137.9754  162.2027 C.3     1  UNL1        0.0725
     29 C         138.5889  139.3353  165.9050 C.ar    1  UNL1        0.0616
     30 C         137.6783  138.4873  166.7425 C.ar    1  UNL1        0.1135
     31 N         137.9040  138.8462  168.1813 N.ar    1  UNL1       -0.2253
     32 C         138.9541  139.9160  168.2330 C.ar    1  UNL1        0.1476
     33 C         139.5795  140.6540  169.3794 C.ar    1  UNL1        0.0374
     34 C         140.6282  141.6943  169.1189 C.ar    1  UNL1        0.0046
     35 C         141.0515  141.9966  167.7120 C.ar    1  UNL1        0.0191
     36 C         140.4261  141.2587  166.5656 C.ar    1  UNL1        0.0811
     37 N         139.3774  140.2184  166.8261 N.ar    1  UNL1       -0.2925
@<TRIPOS>UNITY_ATOM_ATTR
14 1
charge -1
@<TRIPOS>BOND
     1    14    15   ar
     2    15    16   ar
     3    15    13    1
     4    13    17    1
     5    17    18    1
     6    18    19    1
     7    19    20    1
     8    20    21    1
     9    13     1    1
    10     1     2    1
    11     2     3    1
    12     3    22    1
    13    22    23    1
    14    23    24    1
    15    24    25    1
    16    25    26    1
    17    26    29    1
    18    29    30   ar
    19    30    31   ar
    20    31    32   ar
    21    32    33   ar
    22    33    34   ar
    23    34    35   ar
    24    35    36   ar
    25    36    37   ar
    26    26    27    1
    27    27    28    1
    28     3     4    1
    29     4     6    1
    30     6     7   ar
    31     7     8   ar
    32     8     9   ar
    33     9    10   ar
    34    10    11    1
    35    10    12   ar
    36     4     5    1
    37    21    18    1
    38     5     1    1
    39    28    23    1
    40    12     6   ar
    41    37    29   ar
    42    37    32   ar
@<TRIPOS>MOLECULE
*****
 37 42 0 0 0
SMALL
GASTEIGER

@<TRIPOS>ATOM
      1 N         144.5719  142.2348  158.3769 N.3     1  UNL1       -0.2690
      2 C         143.0733  142.2950  158.3546 C.3     1  UNL1        0.0741
      3 C         142.6002  142.5826  159.7488 C.3     1  UNL1        0.0373
      4 C         143.8064  142.7001  160.6326 C.3     1  UNL1        0.0410
      5 C         145.0250  142.4852  159.7848 C.3     1  UNL1        0.0768
      6 C         143.7959  142.9830  162.1056 C.ar    1  UNL1       -0.0188
      7 C         143.7617  144.3998  162.5971 C.ar    1  UNL1       -0.0041
      8 C         143.7512  144.6826  164.0702 C.ar    1  UNL1        0.0020
      9 C         143.7749  143.5486  165.0518 C.ar    1  UNL1        0.0296
     10 C         143.8091  142.1318  164.5604 C.ar    1  UNL1        0.1398
     11 F         143.8328  140.9979  165.5420 F       1  UNL1       -0.2042
     12 C         143.8196  141.8490  163.0872 C.ar    1  UNL1        0.0254
     13 C         145.4613  141.9707  157.1983 C.3     1  UNL1        0.0943
     14 O         145.3235  139.5897  156.1677 O.co2   1  UNL1       -0.5478
     15 C         145.0028  141.0536  156.1033 C.2     1  UNL1        0.0648
     16 O         144.2237  141.6005  154.9442 O.co2   1  UNL1       -0.5478
     17 C         146.8091  142.6235  157.1145 C.3     1  UNL1        0.0217
     18 C         147.6268  142.4982  155.8633 C.3     1  UNL1        0.0017
     19 C         148.8348  141.7053  155.4606 C.3     1  UNL1        0.0001
     20 C         148.7833  142.3210  154.0937 C.3     1  UNL1        0.0000
     21 C         147.5753  143.1138  154.4965 C.3     1  UNL1        0.0001
     22 C         141.1717  142.7272  160.1828 C.3     1  UNL1        0.0738
     23 N         140.7216  142.1417  161.4884 N.3     1  UNL1       -0.2726
     24 C         140.7799  140.6586  161.7051 C.3     1  UNL1        0.0725
     25 C         140.3298  140.0731  163.0107 C.3     1  UNL1        0.0233
     26 C         139.8213  140.9708  164.0997 C.3     1  UNL1        0.0430
     27 C         139.7630  142.4538  163.8830 C.3     1  UNL1        0.0233
     28 C         140.2131  143.0393  162.5773 C.3     1  UNL1        0.0725
     29 C         139.3712  140.3853  165.4053 C.ar    1  UNL1        0.0616
     30 C         138.4077  139.2485  165.5763 C.ar    1  UNL1        0.1135
     31 N         138.2466  138.9945  167.0458 N.ar    1  UNL1       -0.2253
     32 C         139.1106  139.9743  167.7831 C.ar    1  UNL1        0.1476
     33 C         139.3543  140.1948  169.2466 C.ar    1  UNL1        0.0374
     34 C         140.2929  141.2749  169.6962 C.ar    1  UNL1        0.0046
     35 C         140.9880  142.1345  168.6823 C.ar    1  UNL1        0.0191
     36 C         140.7444  141.9140  167.2188 C.ar    1  UNL1        0.0811
     37 N         139.8057  140.8339  166.7692 N.ar    1  UNL1       -0.2925
@<TRIPOS>UNITY_ATOM_ATTR
14 1
charge -1
@<TRIPOS>BOND
     1    14    15   ar
     2    15    16   ar
     3    15    13    1
     4    13    17    1
     5    17    18    1
     6    18    19    1
     7    19    20    1
     8    20    21    1
     9    13     1    1
    10     1     2    1
    11     2     3    1
    12     3    22    1
    13    22    23    1
    14    23    24    1
    15    24    25    1
    16    25    26    1
    17    26    29    1
    18    29    30   ar
    19    30    31   ar
    20    31    32   ar
    21    32    33   ar
    22    33    34   ar
    23    34    35   ar
    24    35    36   ar
    25    36    37   ar
    26    26    27    1
    27    27    28    1
    28     3     4    1
    29     4     6    1
    30     6     7   ar
    31     7     8   ar
    32     8     9   ar
    33     9    10   ar
    34    10    11    1
    35    10    12   ar
    36     4     5    1
    37    21    18    1
    38     5     1    1
    39    28    23    1
    40    12     6   ar
    41    37    29   ar
    42    37    32   ar
