@<TRIPOS>MOLECULE
*****
 37 41 0 0 0
SMALL
GASTEIGER

@<TRIPOS>ATOM
      1 C         137.9159  140.1617  162.1234 C.3     1  UNL1        0.0570
      2 C         137.7322  140.3561  163.5993 C.3     1  UNL1        0.0331
      3 C         137.7234  141.7400  164.1782 C.3     1  UNL1        0.0735
      4 N         137.8983  142.9293  163.2810 N.3     1  UNL1       -0.2711
      5 C         138.0820  142.7348  161.8050 C.3     1  UNL1        0.0735
      6 C         138.0908  141.3510  161.2263 C.3     1  UNL1        0.0331
      7 N         137.9246  138.7779  161.5447 N.3     1  UNL1       -0.2934
      8 H         137.4930  138.1662  162.2374 H       1  UNL1        0.1236
      9 C         139.2229  138.1378  161.1509 C.3     1  UNL1        0.1152
     10 O         145.9560  141.7102  162.7796 O.2     1  UNL1       -0.2707
     11 C         144.9207  140.6765  163.1104 C.2     1  UNL1        0.2718
     12 C         145.0945  139.7997  164.3150 C.3     1  UNL1        0.2898
     13 O         144.0591  138.7660  164.6459 O.3     1  UNL1       -0.4628
     14 C         142.8501  138.6089  163.7722 C.ar    1  UNL1        0.1708
     15 C         141.8148  137.5752  164.1030 C.ar    1  UNL1        0.0411
     16 C         140.6057  137.4181  163.2293 C.ar    1  UNL1        0.0193
     17 C         140.4319  138.2949  162.0246 C.ar    1  UNL1        0.0765
     18 N         141.4672  139.3286  161.6937 N.ar    1  UNL1       -0.2304
     19 C         142.6763  139.4857  162.5676 C.ar    1  UNL1        0.1682
     20 N         143.7116  140.5194  162.2367 N.am    1  UNL1       -0.2639
     21 H         143.5976  141.0948  161.4461 H       1  UNL1        0.1565
     22 C         137.8895  144.3131  163.8598 C.3     1  UNL1        0.0942
     23 C         138.9928  144.7491  164.7778 C.3     1  UNL1        0.1157
     24 N         140.3902  144.2486  164.5615 N.am    1  UNL1       -0.2514
     25 C         141.2034  144.7677  163.4129 C.2     1  UNL1        0.2740
     26 O         140.6190  145.7871  162.4805 O.2     1  UNL1       -0.2705
     27 C         142.6008  144.2673  163.1966 C.3     1  UNL1        0.2900
     28 O         143.1851  143.2478  164.1290 O.3     1  UNL1       -0.4643
     29 C         142.3720  142.7288  165.2776 C.ar    1  UNL1        0.1532
     30 C         142.9563  141.7094  166.2100 C.ar    1  UNL1        0.0445
     31 C         142.1431  141.1903  167.3587 C.ar    1  UNL1        0.0785
     32 C         140.7457  141.6907  167.5749 C.ar    1  UNL1        0.2915
     33 C         140.1614  142.7102  166.6426 C.ar    1  UNL1        0.0932
     34 C         140.9745  143.2292  165.4939 C.ar    1  UNL1        0.0943
     35 N         139.9326  141.1717  168.7236 N.pl3   1  UNL1        0.0810
     36 O         139.7493  142.0116  169.9528 O.2     1  UNL1        0.0415
     37 O         139.3027  139.8126  168.6431 O.co2   1  UNL1       -0.5760
@<TRIPOS>UNITY_ATOM_ATTR
35 1
charge 1
37 1
charge -1
@<TRIPOS>BOND
     1    10    11    2
     2    11    12    1
     3    12    13    1
     4    13    14    1
     5    14    15   ar
     6    15    16   ar
     7    16    17   ar
     8    17     9    1
     9     9     7    1
    10     7     1    1
    11     1     2    1
    12     2     3    1
    13     3     4    1
    14     4    22    1
    15    22    23    1
    16    23    24    1
    17    24    25   am
    18    25    26    2
    19    25    27    1
    20    27    28    1
    21    28    29    1
    22    29    30   ar
    23    30    31   ar
    24    31    32   ar
    25    32    35    1
    26    35    36    2
    27    35    37    1
    28    32    33   ar
    29    33    34   ar
    30     4     5    1
    31     5     6    1
    32    17    18   ar
    33    18    19   ar
    34    19    20    1
    35    20    11   am
    36    19    14   ar
    37     6     1    1
    38    34    24    1
    39    34    29   ar
    40     7     8    1
    41    20    21    1
@<TRIPOS>MOLECULE
*****
 37 41 0 0 0
SMALL
GASTEIGER

@<TRIPOS>ATOM
      1 C         142.3584  138.2662  162.6999 C.3     1  UNL1        0.0570
      2 C         142.8259  138.3384  164.1233 C.3     1  UNL1        0.0331
      3 C         143.9135  139.2973  164.5078 C.3     1  UNL1        0.0735
      4 N         144.5335  140.1840  163.4689 N.3     1  UNL1       -0.2711
      5 C         144.0658  140.1117  162.0454 C.3     1  UNL1        0.0735
      6 C         142.9783  139.1529  161.6609 C.3     1  UNL1        0.0331
      7 N         141.2708  137.3074  162.3155 N.3     1  UNL1       -0.2934
      8 H         141.6228  136.7635  161.5276 H       1  UNL1        0.1236
      9 C         139.9211  137.8253  161.9155 C.3     1  UNL1        0.1152
     10 O         138.3913  145.4662  162.0800 O.2     1  UNL1       -0.2707
     11 C         138.3191  144.1128  162.7227 C.2     1  UNL1        0.2718
     12 C         137.6647  143.9529  164.0629 C.3     1  UNL1        0.2898
     13 O         137.5924  142.5995  164.7056 O.3     1  UNL1       -0.4628
     14 C         138.1746  141.4059  164.0081 C.ar    1  UNL1        0.1708
     15 C         138.1023  140.0525  164.6508 C.ar    1  UNL1        0.0411
     16 C         138.6845  138.8590  163.9533 C.ar    1  UNL1        0.0193
     17 C         139.3389  139.0188  162.6130 C.ar    1  UNL1        0.0765
     18 N         139.4112  140.3722  161.9703 N.ar    1  UNL1       -0.2304
     19 C         138.8290  141.5658  162.6679 C.ar    1  UNL1        0.1682
     20 N         138.9012  142.9192  162.0252 N.am    1  UNL1       -0.2639
     21 H         139.3307  143.0241  161.1455 H       1  UNL1        0.1565
     22 C         145.6210  141.1428  163.8533 C.3     1  UNL1        0.0942
     23 C         145.2719  142.4640  164.4718 C.3     1  UNL1        0.1157
     24 N         143.8811  143.0102  164.3390 N.am    1  UNL1       -0.2514
     25 C         143.5072  143.8252  163.1366 C.2     1  UNL1        0.2740
     26 O         144.5239  144.0941  162.0670 O.2     1  UNL1       -0.2705
     27 C         142.1165  144.3715  163.0037 C.3     1  UNL1        0.2900
     28 O         141.0997  144.1026  164.0733 O.3     1  UNL1       -0.4643
     29 C         141.4737  143.2876  165.2757 C.ar    1  UNL1        0.1532
     30 C         140.4570  143.0188  166.3453 C.ar    1  UNL1        0.0445
     31 C         140.8309  142.2037  167.5477 C.ar    1  UNL1        0.0785
     32 C         142.2216  141.6575  167.6806 C.ar    1  UNL1        0.2915
     33 C         143.2384  141.9263  166.6110 C.ar    1  UNL1        0.0932
     34 C         142.8644  142.7414  165.4086 C.ar    1  UNL1        0.0943
     35 N         142.5955  140.8425  168.8831 N.pl3   1  UNL1        0.0810
     36 O         143.0301  139.4165  168.7169 O.2     1  UNL1        0.0415
     37 O         142.5349  141.4535  170.2517 O.co2   1  UNL1       -0.5760
@<TRIPOS>UNITY_ATOM_ATTR
35 1
charge 1
37 1
charge -1
@<TRIPOS>BOND
     1    10    11    2
     2    11    12    1
     3    12    13    1
     4    13    14    1
     5    14    15   ar
     6    15    16   ar
     7    16    17   ar
     8    17     9    1
     9     9     7    1
    10     7     1    1
    11     1     2    1
    12     2     3    1
    13     3     4    1
    14     4    22    1
    15    22    23    1
    16    23    24    1
    17    24    25   am
    18    25    26    2
    19    25    27    1
    20    27    28    1
    21    28    29    1
    22    29    30   ar
    23    30    31   ar
    24    31    32   ar
    25    32    35    1
    26    35    36    2
    27    35    37    1
    28    32    33   ar
    29    33    34   ar
    30     4     5    1
    31     5     6    1
    32    17    18   ar
    33    18    19   ar
    34    19    20    1
    35    20    11   am
    36    19    14   ar
    37     6     1    1
    38    34    24    1
    39    34    29   ar
    40     7     8    1
    41    20    21    1
@<TRIPOS>MOLECULE
*****
 37 41 0 0 0
SMALL
GASTEIGER

@<TRIPOS>ATOM
      1 C         142.5811  143.8494  164.3866 C.3     1  UNL1        0.0570
      2 C         141.7589  143.1434  165.4237 C.3     1  UNL1        0.0331
      3 C         140.2634  143.1231  165.3090 C.3     1  UNL1        0.0735
      4 N         139.5901  143.8087  164.1572 N.3     1  UNL1       -0.2711
      5 C         140.4124  144.5147  163.1201 C.3     1  UNL1        0.0735
      6 C         141.9078  144.5350  163.2348 C.3     1  UNL1        0.0331
      7 N         144.0765  143.8697  164.5014 N.3     1  UNL1       -0.2934
      8 H         144.4296  144.3364  163.6660 H       1  UNL1        0.1236
      9 C         144.8363  142.5829  164.6323 C.3     1  UNL1        0.1152
     10 O         143.3136  138.7571  158.0146 O.2     1  UNL1       -0.2707
     11 C         143.3378  138.8007  159.5137 C.2     1  UNL1        0.2718
     12 C         142.8786  137.6128  160.3061 C.3     1  UNL1        0.2898
     13 O         142.9028  137.6565  161.8053 O.3     1  UNL1       -0.4628
     14 C         143.3862  138.8881  162.5121 C.ar    1  UNL1        0.1708
     15 C         143.4104  138.9317  164.0112 C.ar    1  UNL1        0.0411
     16 C         143.8937  140.1633  164.7180 C.ar    1  UNL1        0.0193
     17 C         144.3529  141.3513  163.9255 C.ar    1  UNL1        0.0765
     18 N         144.3287  141.3077  162.4264 N.ar    1  UNL1       -0.2304
     19 C         143.8453  140.0760  161.7196 C.ar    1  UNL1        0.1682
     20 N         143.8211  140.0323  160.2205 N.am    1  UNL1       -0.2639
     21 H         144.1225  140.8120  159.7004 H       1  UNL1        0.1565
     22 C         138.0947  143.7884  164.0425 C.3     1  UNL1        0.0942
     23 C         137.4045  142.5985  163.4445 C.3     1  UNL1        0.1157
     24 N         138.2085  141.5215  162.7782 N.am    1  UNL1       -0.2514
     25 C         138.6640  141.6947  161.3596 C.2     1  UNL1        0.2740
     26 O         138.3155  142.9447  160.6072 O.2     1  UNL1       -0.2705
     27 C         139.4679  140.6178  160.6933 C.3     1  UNL1        0.2900
     28 O         139.8164  139.3677  161.4456 O.3     1  UNL1       -0.4643
     29 C         139.3609  139.1946  162.8643 C.ar    1  UNL1        0.1532
     30 C         139.7094  137.9446  163.6166 C.ar    1  UNL1        0.0445
     31 C         139.2539  137.7715  165.0353 C.ar    1  UNL1        0.0785
     32 C         138.4499  138.8484  165.7016 C.ar    1  UNL1        0.2915
     33 C         138.1014  140.0984  164.9492 C.ar    1  UNL1        0.0932
     34 C         138.5569  140.2716  163.5306 C.ar    1  UNL1        0.0943
     35 N         137.9944  138.6753  167.1202 N.pl3   1  UNL1        0.0810
     36 O         138.6734  139.4313  168.2235 O.2     1  UNL1        0.0415
     37 O         136.8598  137.7460  167.4355 O.co2   1  UNL1       -0.5760
@<TRIPOS>UNITY_ATOM_ATTR
35 1
charge 1
37 1
charge -1
@<TRIPOS>BOND
     1    10    11    2
     2    11    12    1
     3    12    13    1
     4    13    14    1
     5    14    15   ar
     6    15    16   ar
     7    16    17   ar
     8    17     9    1
     9     9     7    1
    10     7     1    1
    11     1     2    1
    12     2     3    1
    13     3     4    1
    14     4    22    1
    15    22    23    1
    16    23    24    1
    17    24    25   am
    18    25    26    2
    19    25    27    1
    20    27    28    1
    21    28    29    1
    22    29    30   ar
    23    30    31   ar
    24    31    32   ar
    25    32    35    1
    26    35    36    2
    27    35    37    1
    28    32    33   ar
    29    33    34   ar
    30     4     5    1
    31     5     6    1
    32    17    18   ar
    33    18    19   ar
    34    19    20    1
    35    20    11   am
    36    19    14   ar
    37     6     1    1
    38    34    24    1
    39    34    29   ar
    40     7     8    1
    41    20    21    1
@<TRIPOS>MOLECULE
*****
 37 41 0 0 0
SMALL
GASTEIGER

@<TRIPOS>ATOM
      1 C         144.0202  139.6584  163.1384 C.3     1  UNL1        0.0570
      2 C         142.9307  139.4528  162.1281 C.3     1  UNL1        0.0331
      3 C         141.6451  138.7955  162.5346 C.3     1  UNL1        0.0735
      4 N         141.4490  138.3437  163.9515 N.3     1  UNL1       -0.2711
      5 C         142.5386  138.5493  164.9618 C.3     1  UNL1        0.0735
      6 C         143.8241  139.2066  164.5553 C.3     1  UNL1        0.0331
      7 N         145.3057  140.3156  162.7319 N.3     1  UNL1       -0.2934
      8 H         146.0549  139.8232  163.2184 H       1  UNL1        0.1236
      9 C         145.5129  141.7793  162.9864 C.3     1  UNL1        0.1152
     10 O         139.9691  145.7934  159.2577 O.2     1  UNL1       -0.2707
     11 C         140.6400  145.3846  160.5355 C.2     1  UNL1        0.2718
     12 C         140.1340  145.9050  161.8481 C.3     1  UNL1        0.2898
     13 O         140.8050  145.4962  163.1259 O.3     1  UNL1       -0.4628
     14 C         141.9819  144.5670  163.0910 C.ar    1  UNL1        0.1708
     15 C         142.6529  144.1582  164.3688 C.ar    1  UNL1        0.0411
     16 C         143.8299  143.2290  164.3339 C.ar    1  UNL1        0.0193
     17 C         144.3360  142.7085  163.0213 C.ar    1  UNL1        0.0765
     18 N         143.6650  143.1173  161.7435 N.ar    1  UNL1       -0.2304
     19 C         142.4880  144.0466  161.7784 C.ar    1  UNL1        0.1682
     20 N         141.8170  144.4554  160.5006 N.am    1  UNL1       -0.2639
     21 H         142.1492  144.1138  159.6391 H       1  UNL1        0.1565
     22 C         140.1635  137.6865  164.3580 C.3     1  UNL1        0.0942
     23 C         139.0184  138.5200  164.8519 C.3     1  UNL1        0.1157
     24 N         139.1307  140.0158  164.8655 N.am    1  UNL1       -0.2514
     25 C         138.7485  140.8077  163.6502 C.2     1  UNL1        0.2740
     26 O         138.2541  140.1037  162.4213 O.2     1  UNL1       -0.2705
     27 C         138.8607  142.3034  163.6638 C.3     1  UNL1        0.2900
     28 O         139.3551  143.0073  164.8927 O.3     1  UNL1       -0.4643
     29 C         139.7373  142.2154  166.1080 C.ar    1  UNL1        0.1532
     30 C         140.2317  142.9193  167.3368 C.ar    1  UNL1        0.0445
     31 C         140.6139  142.1274  168.5521 C.ar    1  UNL1        0.0785
     32 C         140.5017  140.6317  168.5385 C.ar    1  UNL1        0.2915
     33 C         140.0072  139.9278  167.3097 C.ar    1  UNL1        0.0932
     34 C         139.6251  140.7197  166.0944 C.ar    1  UNL1        0.0943
     35 N         140.8838  139.8399  169.7538 N.pl3   1  UNL1        0.0810
     36 O         142.2936  139.3555  169.9206 O.2     1  UNL1        0.0415
     37 O         139.8561  139.5324  170.8024 O.co2   1  UNL1       -0.5760
@<TRIPOS>UNITY_ATOM_ATTR
35 1
charge 1
37 1
charge -1
@<TRIPOS>BOND
     1    10    11    2
     2    11    12    1
     3    12    13    1
     4    13    14    1
     5    14    15   ar
     6    15    16   ar
     7    16    17   ar
     8    17     9    1
     9     9     7    1
    10     7     1    1
    11     1     2    1
    12     2     3    1
    13     3     4    1
    14     4    22    1
    15    22    23    1
    16    23    24    1
    17    24    25   am
    18    25    26    2
    19    25    27    1
    20    27    28    1
    21    28    29    1
    22    29    30   ar
    23    30    31   ar
    24    31    32   ar
    25    32    35    1
    26    35    36    2
    27    35    37    1
    28    32    33   ar
    29    33    34   ar
    30     4     5    1
    31     5     6    1
    32    17    18   ar
    33    18    19   ar
    34    19    20    1
    35    20    11   am
    36    19    14   ar
    37     6     1    1
    38    34    24    1
    39    34    29   ar
    40     7     8    1
    41    20    21    1
@<TRIPOS>MOLECULE
*****
 37 41 0 0 0
SMALL
GASTEIGER

@<TRIPOS>ATOM
      1 C         143.7934  143.7245  162.2923 C.3     1  UNL1        0.0570
      2 C         143.4571  144.2644  163.6507 C.3     1  UNL1        0.0331
      3 C         142.0858  144.8078  163.9234 C.3     1  UNL1        0.0735
      4 N         141.0508  144.8112  162.8376 N.3     1  UNL1       -0.2711
      5 C         141.3872  144.2712  161.4792 C.3     1  UNL1        0.0735
      6 C         142.7584  143.7279  161.2065 C.3     1  UNL1        0.0331
      7 N         145.1646  143.1811  162.0196 N.3     1  UNL1       -0.2934
      8 H         145.2197  143.0110  161.0154 H       1  UNL1        0.1236
      9 C         145.6215  141.9234  162.6976 C.3     1  UNL1        0.1152
     10 O         139.3346  137.6493  160.9778 O.2     1  UNL1       -0.2707
     11 C         140.4314  138.0215  161.9311 C.2     1  UNL1        0.2718
     12 C         140.5293  137.3411  163.2643 C.3     1  UNL1        0.2898
     13 O         141.6260  137.7132  164.2175 O.3     1  UNL1       -0.4628
     14 C         142.6249  138.7657  163.8375 C.ar    1  UNL1        0.1708
     15 C         143.7216  139.1379  164.7907 C.ar    1  UNL1        0.0411
     16 C         144.7205  140.1904  164.4108 C.ar    1  UNL1        0.0193
     17 C         144.6226  140.8709  163.0775 C.ar    1  UNL1        0.0765
     18 N         143.5259  140.4987  162.1243 N.ar    1  UNL1       -0.2304
     19 C         142.5270  139.4461  162.5043 C.ar    1  UNL1        0.1682
     20 N         141.4302  139.0740  161.5511 N.am    1  UNL1       -0.2639
     21 H         141.3660  139.5206  160.6761 H       1  UNL1        0.1565
     22 C         139.6796  145.3546  163.1103 C.3     1  UNL1        0.0942
     23 C         138.7502  144.6183  164.0290 C.3     1  UNL1        0.1157
     24 N         138.7048  143.1191  164.0062 N.am    1  UNL1       -0.2514
     25 C         138.1203  142.4044  162.8240 C.2     1  UNL1        0.2740
     26 O         137.5813  143.1888  161.6646 O.2     1  UNL1       -0.2705
     27 C         138.0749  140.9053  162.8012 C.3     1  UNL1        0.2900
     28 O         138.6140  140.1208  163.9606 O.3     1  UNL1       -0.4643
     29 C         139.1984  140.8356  165.1428 C.ar    1  UNL1        0.1532
     30 C         139.7375  140.0513  166.3022 C.ar    1  UNL1        0.0445
     31 C         140.3219  140.7660  167.4844 C.ar    1  UNL1        0.0785
     32 C         140.3673  142.2651  167.5072 C.ar    1  UNL1        0.2915
     33 C         139.8283  143.0496  166.3478 C.ar    1  UNL1        0.0932
     34 C         139.2438  142.3348  165.1656 C.ar    1  UNL1        0.0943
     35 N         140.9518  142.9799  168.6894 N.pl3   1  UNL1        0.0810
     36 O         140.1270  143.9799  169.4441 O.2     1  UNL1        0.0415
     37 O         142.3611  142.6945  169.1168 O.co2   1  UNL1       -0.5760
@<TRIPOS>UNITY_ATOM_ATTR
35 1
charge 1
37 1
charge -1
@<TRIPOS>BOND
     1    10    11    2
     2    11    12    1
     3    12    13    1
     4    13    14    1
     5    14    15   ar
     6    15    16   ar
     7    16    17   ar
     8    17     9    1
     9     9     7    1
    10     7     1    1
    11     1     2    1
    12     2     3    1
    13     3     4    1
    14     4    22    1
    15    22    23    1
    16    23    24    1
    17    24    25   am
    18    25    26    2
    19    25    27    1
    20    27    28    1
    21    28    29    1
    22    29    30   ar
    23    30    31   ar
    24    31    32   ar
    25    32    35    1
    26    35    36    2
    27    35    37    1
    28    32    33   ar
    29    33    34   ar
    30     4     5    1
    31     5     6    1
    32    17    18   ar
    33    18    19   ar
    34    19    20    1
    35    20    11   am
    36    19    14   ar
    37     6     1    1
    38    34    24    1
    39    34    29   ar
    40     7     8    1
    41    20    21    1
@<TRIPOS>MOLECULE
*****
 37 41 0 0 0
SMALL
GASTEIGER

@<TRIPOS>ATOM
      1 C         141.6725  137.6683  162.2554 C.3     1  UNL1        0.0570
      2 C         141.9877  137.5672  163.7184 C.3     1  UNL1        0.0331
      3 C         140.9083  137.7923  164.7355 C.3     1  UNL1        0.0735
      4 N         139.5138  138.1185  164.2895 N.3     1  UNL1       -0.2711
      5 C         139.1986  138.2196  162.8264 C.3     1  UNL1        0.0735
      6 C         140.2780  137.9945  161.8094 C.3     1  UNL1        0.0331
      7 N         142.7518  137.4432  161.2385 N.3     1  UNL1       -0.2934
      8 H         143.1266  136.5099  161.4085 H       1  UNL1        0.1236
      9 C         143.9252  138.3753  161.1712 C.3     1  UNL1        0.1152
     10 O         145.2264  144.2694  166.1025 O.2     1  UNL1       -0.2707
     11 C         144.6259  143.7483  164.8305 C.2     1  UNL1        0.2718
     12 C         143.8589  144.6708  163.9302 C.3     1  UNL1        0.2898
     13 O         143.2584  144.1497  162.6582 O.3     1  UNL1       -0.4628
     14 C         143.4251  142.7062  162.2865 C.ar    1  UNL1        0.1708
     15 C         142.8247  142.1851  161.0145 C.ar    1  UNL1        0.0411
     16 C         142.9914  140.7415  160.6427 C.ar    1  UNL1        0.0193
     17 C         143.7585  139.8189  161.5430 C.ar    1  UNL1        0.0765
     18 N         144.3589  140.3400  162.8150 N.ar    1  UNL1       -0.2304
     19 C         144.1922  141.7837  163.1867 C.ar    1  UNL1        0.1682
     20 N         144.7926  142.3047  164.4587 N.am    1  UNL1       -0.2639
     21 H         145.2961  141.6992  165.0496 H       1  UNL1        0.1565
     22 C         138.4344  138.3436  165.3065 C.3     1  UNL1        0.0942
     23 C         138.1462  139.7305  165.7997 C.3     1  UNL1        0.1157
     24 N         139.1488  140.8258  165.5868 N.am    1  UNL1       -0.2514
     25 C         139.0282  141.7322  164.3977 C.2     1  UNL1        0.2740
     26 O         137.9051  141.5432  163.4215 O.2     1  UNL1       -0.2705
     27 C         140.0308  142.8274  164.1847 C.3     1  UNL1        0.2900
     28 O         141.1540  143.0163  165.1609 O.3     1  UNL1       -0.4643
     29 C         141.2745  142.1099  166.3500 C.ar    1  UNL1        0.1532
     30 C         142.3976  142.2988  167.3261 C.ar    1  UNL1        0.0445
     31 C         142.5182  141.3924  168.5153 C.ar    1  UNL1        0.0785
     32 C         141.5157  140.2972  168.7282 C.ar    1  UNL1        0.2915
     33 C         140.3925  140.1083  167.7520 C.ar    1  UNL1        0.0932
     34 C         140.2719  141.0147  166.5629 C.ar    1  UNL1        0.0943
     35 N         141.6362  139.3909  169.9173 N.pl3   1  UNL1        0.0810
     36 O         140.4891  139.2517  170.8737 O.2     1  UNL1        0.0415
     37 O         142.9041  138.6236  170.1501 O.co2   1  UNL1       -0.5760
@<TRIPOS>UNITY_ATOM_ATTR
35 1
charge 1
37 1
charge -1
@<TRIPOS>BOND
     1    10    11    2
     2    11    12    1
     3    12    13    1
     4    13    14    1
     5    14    15   ar
     6    15    16   ar
     7    16    17   ar
     8    17     9    1
     9     9     7    1
    10     7     1    1
    11     1     2    1
    12     2     3    1
    13     3     4    1
    14     4    22    1
    15    22    23    1
    16    23    24    1
    17    24    25   am
    18    25    26    2
    19    25    27    1
    20    27    28    1
    21    28    29    1
    22    29    30   ar
    23    30    31   ar
    24    31    32   ar
    25    32    35    1
    26    35    36    2
    27    35    37    1
    28    32    33   ar
    29    33    34   ar
    30     4     5    1
    31     5     6    1
    32    17    18   ar
    33    18    19   ar
    34    19    20    1
    35    20    11   am
    36    19    14   ar
    37     6     1    1
    38    34    24    1
    39    34    29   ar
    40     7     8    1
    41    20    21    1
@<TRIPOS>MOLECULE
*****
 37 41 0 0 0
SMALL
GASTEIGER

@<TRIPOS>ATOM
      1 C         139.5898  137.7746  162.5685 C.3     1  UNL1        0.0570
      2 C         140.9888  137.8694  162.0357 C.3     1  UNL1        0.0331
      3 C         142.1433  138.0180  162.9818 C.3     1  UNL1        0.0735
      4 N         141.8987  138.0718  164.4608 N.3     1  UNL1       -0.2711
      5 C         140.4997  137.9770  164.9936 C.3     1  UNL1        0.0735
      6 C         139.3453  137.8284  164.0474 C.3     1  UNL1        0.0331
      7 N         138.4354  137.6260  161.6223 N.3     1  UNL1       -0.2934
      8 H         138.8316  137.5292  160.6874 H       1  UNL1        0.1236
      9 C         137.3898  138.6984  161.5407 C.3     1  UNL1        0.1152
     10 O         138.4243  145.2738  165.5957 O.2     1  UNL1       -0.2707
     11 C         138.4807  144.5264  164.2964 C.2     1  UNL1        0.2718
     12 C         138.9385  145.2233  163.0496 C.3     1  UNL1        0.2898
     13 O         138.9949  144.4758  161.7503 O.3     1  UNL1       -0.4628
     14 C         138.5936  143.0315  161.6979 C.ar    1  UNL1        0.1708
     15 C         138.6501  142.2841  160.3986 C.ar    1  UNL1        0.0411
     16 C         138.2488  140.8397  160.3462 C.ar    1  UNL1        0.0193
     17 C         137.7910  140.1427  161.5931 C.ar    1  UNL1        0.0765
     18 N         137.7346  140.8902  162.8924 N.ar    1  UNL1       -0.2304
     19 C         138.1359  142.3346  162.9447 C.ar    1  UNL1        0.1682
     20 N         138.0794  143.0820  164.2440 N.am    1  UNL1       -0.2639
     21 H         137.7790  142.6246  165.0624 H       1  UNL1        0.1565
     22 C         143.0531  138.2204  165.4069 C.3     1  UNL1        0.0942
     23 C         143.6825  139.5657  165.6166 C.3     1  UNL1        0.1157
     24 N         142.8632  140.8112  165.4506 N.am    1  UNL1       -0.2514
     25 C         142.8880  141.5574  164.1495 C.2     1  UNL1        0.2740
     26 O         143.7321  141.0580  163.0146 O.2     1  UNL1       -0.2705
     27 C         142.0687  142.8028  163.9835 C.3     1  UNL1        0.2900
     28 O         141.2245  143.3021  165.1185 O.3     1  UNL1       -0.4643
     29 C         141.1997  142.5560  166.4195 C.ar    1  UNL1        0.1532
     30 C         140.3556  143.0553  167.5544 C.ar    1  UNL1        0.0445
     31 C         140.3308  142.3091  168.8555 C.ar    1  UNL1        0.0785
     32 C         141.1501  141.0637  169.0215 C.ar    1  UNL1        0.2915
     33 C         141.9943  140.5644  167.8865 C.ar    1  UNL1        0.0932
     34 C         142.0191  141.3105  166.5855 C.ar    1  UNL1        0.0943
     35 N         141.1253  140.3176  170.3226 N.pl3   1  UNL1        0.0810
     36 O         139.9327  139.4837  170.6863 O.2     1  UNL1        0.0415
     37 O         142.2932  140.4053  171.2598 O.co2   1  UNL1       -0.5760
@<TRIPOS>UNITY_ATOM_ATTR
35 1
charge 1
37 1
charge -1
@<TRIPOS>BOND
     1    10    11    2
     2    11    12    1
     3    12    13    1
     4    13    14    1
     5    14    15   ar
     6    15    16   ar
     7    16    17   ar
     8    17     9    1
     9     9     7    1
    10     7     1    1
    11     1     2    1
    12     2     3    1
    13     3     4    1
    14     4    22    1
    15    22    23    1
    16    23    24    1
    17    24    25   am
    18    25    26    2
    19    25    27    1
    20    27    28    1
    21    28    29    1
    22    29    30   ar
    23    30    31   ar
    24    31    32   ar
    25    32    35    1
    26    35    36    2
    27    35    37    1
    28    32    33   ar
    29    33    34   ar
    30     4     5    1
    31     5     6    1
    32    17    18   ar
    33    18    19   ar
    34    19    20    1
    35    20    11   am
    36    19    14   ar
    37     6     1    1
    38    34    24    1
    39    34    29   ar
    40     7     8    1
    41    20    21    1
@<TRIPOS>MOLECULE
*****
 37 41 0 0 0
SMALL
GASTEIGER

@<TRIPOS>ATOM
      1 C         137.9248  143.1587  162.9785 C.3     1  UNL1        0.0570
      2 C         138.0706  142.0277  162.0040 C.3     1  UNL1        0.0331
      3 C         138.2650  140.6270  162.5042 C.3     1  UNL1        0.0735
      4 N         138.3137  140.3572  163.9789 N.3     1  UNL1       -0.2711
      5 C         138.1679  141.4882  164.9535 C.3     1  UNL1        0.0735
      6 C         137.9735  142.8889  164.4533 C.3     1  UNL1        0.0331
      7 N         137.7304  144.5593  162.4783 N.3     1  UNL1       -0.2934
      8 H         137.3618  144.4849  161.5301 H       1  UNL1        0.1236
      9 C         138.8953  145.5024  162.4173 C.3     1  UNL1        0.1152
     10 O         144.6564  141.9019  158.5968 O.2     1  UNL1       -0.2707
     11 C         144.1358  142.5640  159.8380 C.2     1  UNL1        0.2718
     12 C         145.0149  142.6879  161.0470 C.3     1  UNL1        0.2898
     13 O         144.4944  143.3500  162.2882 O.3     1  UNL1       -0.4628
     14 C         143.0946  143.8881  162.3205 C.ar    1  UNL1        0.1708
     15 C         142.5740  144.5501  163.5617 C.ar    1  UNL1        0.0411
     16 C         141.1743  145.0883  163.5940 C.ar    1  UNL1        0.0193
     17 C         140.2950  144.9643  162.3850 C.ar    1  UNL1        0.0765
     18 N         140.8156  144.3023  161.1437 N.ar    1  UNL1       -0.2304
     19 C         142.2154  143.7642  161.1115 C.ar    1  UNL1        0.1682
     20 N         142.7360  143.1021  159.8703 N.am    1  UNL1       -0.2639
     21 H         142.1590  143.0208  159.0768 H       1  UNL1        0.1565
     22 C         138.5081  138.9565  164.4791 C.3     1  UNL1        0.0942
     23 C         139.6987  138.6218  165.3279 C.3     1  UNL1        0.1157
     24 N         140.8981  139.5227  165.3263 N.am    1  UNL1       -0.2514
     25 C         141.7989  139.5699  164.1278 C.2     1  UNL1        0.2740
     26 O         141.5002  138.7164  162.9310 O.2     1  UNL1       -0.2705
     27 C         142.9983  140.4707  164.1261 C.3     1  UNL1        0.2900
     28 O         143.2969  141.3243  165.3229 O.3     1  UNL1       -0.4643
     29 C         142.3961  141.2770  166.5214 C.ar    1  UNL1        0.1532
     30 C         142.6947  142.1305  167.7182 C.ar    1  UNL1        0.0445
     31 C         141.7939  142.0833  168.9167 C.ar    1  UNL1        0.0785
     32 C         140.5945  141.1825  168.9184 C.ar    1  UNL1        0.2915
     33 C         140.2959  140.3289  167.7215 C.ar    1  UNL1        0.0932
     34 C         141.1967  140.3762  166.5231 C.ar    1  UNL1        0.0943
     35 N         139.6938  141.1352  170.1168 N.pl3   1  UNL1        0.0810
     36 O         139.2612  142.4088  170.7807 O.2     1  UNL1        0.0415
     37 O         139.2255  139.8142  170.6515 O.co2   1  UNL1       -0.5760
@<TRIPOS>UNITY_ATOM_ATTR
35 1
charge 1
37 1
charge -1
@<TRIPOS>BOND
     1    10    11    2
     2    11    12    1
     3    12    13    1
     4    13    14    1
     5    14    15   ar
     6    15    16   ar
     7    16    17   ar
     8    17     9    1
     9     9     7    1
    10     7     1    1
    11     1     2    1
    12     2     3    1
    13     3     4    1
    14     4    22    1
    15    22    23    1
    16    23    24    1
    17    24    25   am
    18    25    26    2
    19    25    27    1
    20    27    28    1
    21    28    29    1
    22    29    30   ar
    23    30    31   ar
    24    31    32   ar
    25    32    35    1
    26    35    36    2
    27    35    37    1
    28    32    33   ar
    29    33    34   ar
    30     4     5    1
    31     5     6    1
    32    17    18   ar
    33    18    19   ar
    34    19    20    1
    35    20    11   am
    36    19    14   ar
    37     6     1    1
    38    34    24    1
    39    34    29   ar
    40     7     8    1
    41    20    21    1
@<TRIPOS>MOLECULE
*****
 37 41 0 0 0
SMALL
GASTEIGER

@<TRIPOS>ATOM
      1 C         138.1442  142.4768  164.2835 C.3     1  UNL1        0.0570
      2 C         139.0133  141.8386  165.3262 C.3     1  UNL1        0.0331
      3 C         139.2670  140.3606  165.2891 C.3     1  UNL1        0.0735
      4 N         138.6516  139.5210  164.2091 N.3     1  UNL1       -0.2711
      5 C         137.7824  140.1592  163.1664 C.3     1  UNL1        0.0735
      6 C         137.5288  141.6371  163.2036 C.3     1  UNL1        0.0331
      7 N         137.8905  143.9547  164.3207 N.3     1  UNL1       -0.2934
      8 H         137.1928  144.1518  163.6033 H       1  UNL1        0.1236
      9 C         139.0212  144.9156  164.1008 C.3     1  UNL1        0.1152
     10 O         140.3546  146.2035  156.5302 O.2     1  UNL1       -0.2707
     11 C         140.7903  145.6332  157.8474 C.2     1  UNL1        0.2718
     12 C         142.1062  144.9218  157.9581 C.3     1  UNL1        0.2898
     13 O         142.5419  144.3515  159.2753 O.3     1  UNL1       -0.4628
     14 C         141.6618  144.4925  160.4816 C.ar    1  UNL1        0.1708
     15 C         142.0975  143.9221  161.7988 C.ar    1  UNL1        0.0411
     16 C         141.2173  144.0631  163.0051 C.ar    1  UNL1        0.0193
     17 C         139.9014  144.7746  162.8944 C.ar    1  UNL1        0.0765
     18 N         139.4656  145.3449  161.5773 N.ar    1  UNL1       -0.2304
     19 C         140.3459  145.2039  160.3709 C.ar    1  UNL1        0.1682
     20 N         139.9102  145.7742  159.0537 N.am    1  UNL1       -0.2639
     21 H         139.0465  146.2411  158.9811 H       1  UNL1        0.1565
     22 C         138.9053  138.0431  164.1719 C.3     1  UNL1        0.0942
     23 C         139.8903  137.4756  163.1933 C.3     1  UNL1        0.1157
     24 N         140.9116  138.3689  162.5537 N.am    1  UNL1       -0.2514
     25 C         140.7006  138.8681  161.1551 C.2     1  UNL1        0.2740
     26 O         139.4683  138.4741  160.3960 O.2     1  UNL1       -0.2705
     27 C         141.7219  139.7614  160.5155 C.3     1  UNL1        0.2900
     28 O         142.9542  140.1555  161.2746 O.3     1  UNL1       -0.4643
     29 C         143.1652  139.6563  162.6732 C.ar    1  UNL1        0.1532
     30 C         144.3975  140.0503  163.4323 C.ar    1  UNL1        0.0445
     31 C         144.6085  139.5511  164.8310 C.ar    1  UNL1        0.0785
     32 C         143.5872  138.6578  165.4706 C.ar    1  UNL1        0.2915
     33 C         142.3549  138.2637  164.7115 C.ar    1  UNL1        0.0932
     34 C         142.1439  138.7630  163.3128 C.ar    1  UNL1        0.0943
     35 N         143.7982  138.1586  166.8692 N.pl3   1  UNL1        0.0810
     36 O         144.6968  136.9837  167.1187 O.2     1  UNL1        0.0415
     37 O         143.1107  138.8343  168.0185 O.co2   1  UNL1       -0.5760
@<TRIPOS>UNITY_ATOM_ATTR
35 1
charge 1
37 1
charge -1
@<TRIPOS>BOND
     1    10    11    2
     2    11    12    1
     3    12    13    1
     4    13    14    1
     5    14    15   ar
     6    15    16   ar
     7    16    17   ar
     8    17     9    1
     9     9     7    1
    10     7     1    1
    11     1     2    1
    12     2     3    1
    13     3     4    1
    14     4    22    1
    15    22    23    1
    16    23    24    1
    17    24    25   am
    18    25    26    2
    19    25    27    1
    20    27    28    1
    21    28    29    1
    22    29    30   ar
    23    30    31   ar
    24    31    32   ar
    25    32    35    1
    26    35    36    2
    27    35    37    1
    28    32    33   ar
    29    33    34   ar
    30     4     5    1
    31     5     6    1
    32    17    18   ar
    33    18    19   ar
    34    19    20    1
    35    20    11   am
    36    19    14   ar
    37     6     1    1
    38    34    24    1
    39    34    29   ar
    40     7     8    1
    41    20    21    1
