@<TRIPOS>MOLECULE
*****
 38 40 0 0 0
SMALL
GASTEIGER

@<TRIPOS>ATOM
      1 C         141.6621  144.2059  161.2177 C.ar    1  UNL1        0.0587
      2 C         141.9740  143.2220  162.3060 C.ar    1  UNL1        0.0495
      3 C         142.6557  141.9276  161.9741 C.ar    1  UNL1        0.1366
      4 N         143.0254  141.6173  160.5539 N.ar    1  UNL1       -0.2282
      5 C         142.7134  142.6014  159.4656 C.ar    1  UNL1        0.1118
      6 C         142.0318  143.8956  159.7975 C.ar    1  UNL1        0.1007
      7 N         142.9676  140.9437  163.0625 N.am    1  UNL1       -0.2531
      8 C         142.5216  141.2144  164.4688 C.2     1  UNL1        0.3135
      9 O         141.7636  142.4691  164.7868 O.2     1  UNL1       -0.2518
     10 N         142.8335  140.2304  165.5571 N.am    1  UNL1       -0.2282
     11 C         143.5915  138.9757  165.2391 C.3     1  UNL1        0.1015
     12 C         143.9034  137.9917  166.3274 C.3     1  UNL1        0.0268
     13 C         143.4574  138.2624  167.7338 C.3     1  UNL1        0.0310
     14 C         142.6994  139.5171  168.0518 C.ar    1  UNL1        0.0097
     15 C         142.2534  139.7879  169.4581 C.ar    1  UNL1       -0.0018
     16 C         141.4954  141.0426  169.7761 C.ar    1  UNL1        0.0277
     17 CA        141.1835  142.0266  168.6878 C.ar    1  UNL1        0.1231
     18 N         141.6295  141.7559  167.2814 N.ar    1  UNL1       -0.2275
     19 C         142.3875  140.5011  166.9635 C.ar    1  UNL1        0.1345
     20 H         143.4651  140.1201  162.8537 H       1  UNL1        0.1578
     21 C         141.0494  141.3133  171.1824 C.3     1  UNL1        0.1652
     22 O         141.8980  142.1539  172.0897 O.3     1  UNL1       -0.3772
     23 H         142.7327  141.6937  172.2699 H       1  UNL1        0.2109
     24 C         140.4255  143.2814  169.0058 C.2     1  UNL1        0.2529
     25 O         140.9009  144.1870  170.1030 O.2     1  UNL1       -0.2815
     26 N         140.9805  145.5002  161.5496 N.pl3   1  UNL1       -0.3301
     27 H         141.4607  146.3523  161.4378 H       1  UNL1        0.1469
     28 C         139.5671  145.4962  162.0519 C.3     1  UNL1        0.1157
     29 C         139.2728  145.0717  163.4602 C.3     1  UNL1        0.1209
     30 C         138.9785  144.6472  164.8684 C.3     1  UNL1        0.0325
     31 O         140.5558  145.6998  163.9176 O.3     1  UNL1       -0.3837
     32 H         140.6530  145.5764  164.8748 H       1  UNL1        0.2104
     33 C         137.9898  144.4436  163.0028 C.3     1  UNL1        0.1010
     34 C         137.6737  141.9435  163.6353 C.3     1  UNL1        0.0897
     35 N         137.9622  142.9969  162.6071 N.3     1  UNL1       -0.2683
     36 C         138.2231  142.6038  161.1833 C.3     1  UNL1        0.0897
     37 C         141.7199  144.8796  158.7092 C.1     1  UNL1        0.1032
     38 N         141.4079  145.8636  157.6208 N.1     1  UNL1       -0.1907
@<TRIPOS>BOND
     1    34    35    1
     2    35    36    1
     3    35    33    1
     4    33    29    1
     5    29    30    1
     6    29    31    1
     7    29    28    1
     8    28    26    1
     9    26     1    1
    10     1     2   ar
    11     2     3   ar
    12     3     7    1
    13     7     8   am
    14     8     9    2
    15     8    10   am
    16    10    11    1
    17    11    12    1
    18    12    13    1
    19    13    14    1
    20    14    15   ar
    21    15    16   ar
    22    16    21    1
    23    21    22    1
    24    16    17   ar
    25    17    24    1
    26    24    25    2
    27    17    18   ar
    28    18    19   ar
    29     3     4   ar
    30     4     5   ar
    31     5     6   ar
    32     6    37    1
    33    37    38    3
    34     6     1   ar
    35    19    10    1
    36    19    14   ar
    37    31    32    1
    38    26    27    1
    39     7    20    1
    40    22    23    1
@<TRIPOS>MOLECULE
*****
 38 40 0 0 0
SMALL
GASTEIGER

@<TRIPOS>ATOM
      1 C         142.1184  140.9975  159.9000 C.ar    1  UNL1        0.0587
      2 C         141.2072  140.7656  161.0686 C.ar    1  UNL1        0.0495
      3 C         141.3615  139.5311  161.9066 C.ar    1  UNL1        0.1366
      4 N         142.4271  138.5286  161.5759 N.ar    1  UNL1       -0.2282
      5 C         143.3384  138.7605  160.4072 C.ar    1  UNL1        0.1118
      6 C         143.1841  139.9950  159.5693 C.ar    1  UNL1        0.1007
      7 N         140.4502  139.2991  163.0752 N.am    1  UNL1       -0.2531
      8 C         140.8211  139.8228  164.4311 C.2     1  UNL1        0.3135
      9 O         142.1033  140.5784  164.6182 O.2     1  UNL1       -0.2518
     10 N         139.9098  139.5908  165.5997 N.am    1  UNL1       -0.2282
     11 C         138.6276  138.8352  165.4125 C.3     1  UNL1        0.1015
     12 C         137.7163  138.6033  166.5812 C.3     1  UNL1        0.0268
     13 C         138.0872  139.1269  167.9370 C.3     1  UNL1        0.0310
     14 C         139.3694  139.8825  168.1242 C.ar    1  UNL1        0.0097
     15 C         139.7403  140.4061  169.4800 C.ar    1  UNL1       -0.0018
     16 C         141.0225  141.1617  169.6672 C.ar    1  UNL1        0.0277
     17 CA        141.9338  141.3937  168.4985 C.ar    1  UNL1        0.1231
     18 N         141.5629  140.8701  167.1427 N.ar    1  UNL1       -0.2275
     19 C         140.2807  140.1144  166.9555 C.ar    1  UNL1        0.1345
     20 H         139.6087  138.8032  162.9524 H       1  UNL1        0.1578
     21 C         141.3934  141.6854  171.0230 C.3     1  UNL1        0.1652
     22 O         142.1654  140.8211  171.9753 O.3     1  UNL1       -0.3772
     23 H         141.6208  140.0626  172.2377 H       1  UNL1        0.2109
     24 C         143.2160  142.1493  168.6857 C.2     1  UNL1        0.2529
     25 O         143.8202  142.8980  167.5348 O.2     1  UNL1       -0.2815
     26 N         141.9641  142.2320  159.0620 N.pl3   1  UNL1       -0.3301
     27 H         141.9114  142.1581  158.0817 H       1  UNL1        0.1469
     28 C         141.8900  143.5791  159.7176 C.3     1  UNL1        0.1157
     29 C         141.1143  144.6872  159.0691 C.3     1  UNL1        0.1209
     30 C         140.3387  145.7953  158.4206 C.3     1  UNL1        0.0325
     31 O         142.3751  145.2015  158.4400 O.3     1  UNL1       -0.3837
     32 H         142.1740  145.9880  157.9090 H       1  UNL1        0.2104
     33 C         139.8535  144.1729  159.6982 C.3     1  UNL1        0.1010
     34 C         139.8945  145.8836  161.6532 C.3     1  UNL1        0.0897
     35 N         139.5213  144.5338  161.1157 N.3     1  UNL1       -0.2683
     36 C         138.8159  143.5449  161.9958 C.3     1  UNL1        0.0897
     37 C         144.0953  140.2270  158.4007 C.1     1  UNL1        0.1032
     38 N         145.0066  140.4589  157.2319 N.1     1  UNL1       -0.1907
@<TRIPOS>BOND
     1    34    35    1
     2    35    36    1
     3    35    33    1
     4    33    29    1
     5    29    30    1
     6    29    31    1
     7    29    28    1
     8    28    26    1
     9    26     1    1
    10     1     2   ar
    11     2     3   ar
    12     3     7    1
    13     7     8   am
    14     8     9    2
    15     8    10   am
    16    10    11    1
    17    11    12    1
    18    12    13    1
    19    13    14    1
    20    14    15   ar
    21    15    16   ar
    22    16    21    1
    23    21    22    1
    24    16    17   ar
    25    17    24    1
    26    24    25    2
    27    17    18   ar
    28    18    19   ar
    29     3     4   ar
    30     4     5   ar
    31     5     6   ar
    32     6    37    1
    33    37    38    3
    34     6     1   ar
    35    19    10    1
    36    19    14   ar
    37    31    32    1
    38    26    27    1
    39     7    20    1
    40    22    23    1
@<TRIPOS>MOLECULE
*****
 38 40 0 0 0
SMALL
GASTEIGER

@<TRIPOS>ATOM
      1 C         141.2541  139.1350  160.3708 C.ar    1  UNL1        0.0587
      2 C         140.9465  138.3789  159.1124 C.ar    1  UNL1        0.0495
      3 C         141.9911  138.2437  158.0444 C.ar    1  UNL1        0.1366
      4 N         143.3433  138.8645  158.2349 N.ar    1  UNL1       -0.2282
      5 C         143.6508  139.6206  159.4935 C.ar    1  UNL1        0.1118
      6 C         142.6062  139.7558  160.5614 C.ar    1  UNL1        0.1007
      7 N         141.6836  137.4876  156.7860 N.am    1  UNL1       -0.2531
      8 C         142.2870  136.1333  156.5582 C.2     1  UNL1        0.3135
      9 O         143.1981  135.5352  157.5888 O.2     1  UNL1       -0.2518
     10 N         141.9795  135.3773  155.2996 N.am    1  UNL1       -0.2282
     11 C         141.0684  135.9754  154.2690 C.3     1  UNL1        0.1015
     12 C         140.7609  135.2193  153.0106 C.3     1  UNL1        0.0268
     13 C         141.3644  133.8651  152.7828 C.3     1  UNL1        0.0310
     14 C         142.2754  133.2669  153.8134 C.ar    1  UNL1        0.0097
     15 C         142.8788  131.9127  153.5856 C.ar    1  UNL1       -0.0018
     16 C         143.7898  131.3146  154.6162 C.ar    1  UNL1        0.0277
     17 CA        144.0974  132.0707  155.8747 C.ar    1  UNL1        0.1231
     18 N         143.4940  133.4249  156.1025 N.ar    1  UNL1       -0.2275
     19 C         142.5829  134.0230  155.0718 C.ar    1  UNL1        0.1345
     20 H         141.0857  137.8801  156.1095 H       1  UNL1        0.1578
     21 C         144.3933  129.9603  154.3884 C.3     1  UNL1        0.1652
     22 O         145.3293  129.7404  153.2371 O.3     1  UNL1       -0.3772
     23 H         144.8458  129.8451  152.4028 H       1  UNL1        0.2109
     24 C         145.0084  131.4725  156.9054 C.2     1  UNL1        0.2529
     25 O         144.4917  130.4236  157.8450 O.2     1  UNL1       -0.2815
     26 N         140.2095  139.2703  161.4387 N.pl3   1  UNL1       -0.3301
     27 H         139.6944  140.1053  161.5205 H       1  UNL1        0.1469
     28 C         139.9497  138.1334  162.3821 C.3     1  UNL1        0.1157
     29 C         140.8285  137.9386  163.5820 C.3     1  UNL1        0.1209
     30 C         141.7074  137.7439  164.7818 C.3     1  UNL1        0.0325
     31 O         141.2928  136.6241  163.0286 O.3     1  UNL1       -0.3837
     32 H         141.9287  136.2220  163.6408 H       1  UNL1        0.2104
     33 C         140.3643  139.2532  164.1355 C.3     1  UNL1        0.1010
     34 C         138.1050  140.5284  164.2766 C.3     1  UNL1        0.0897
     35 N         138.9791  139.3838  164.6961 N.3     1  UNL1       -0.2683
     36 C         138.4681  138.3698  165.6762 C.3     1  UNL1        0.0897
     37 C         142.9137  140.5119  161.8198 C.1     1  UNL1        0.1032
     38 N         143.2213  141.2681  163.0783 N.1     1  UNL1       -0.1907
@<TRIPOS>BOND
     1    34    35    1
     2    35    36    1
     3    35    33    1
     4    33    29    1
     5    29    30    1
     6    29    31    1
     7    29    28    1
     8    28    26    1
     9    26     1    1
    10     1     2   ar
    11     2     3   ar
    12     3     7    1
    13     7     8   am
    14     8     9    2
    15     8    10   am
    16    10    11    1
    17    11    12    1
    18    12    13    1
    19    13    14    1
    20    14    15   ar
    21    15    16   ar
    22    16    21    1
    23    21    22    1
    24    16    17   ar
    25    17    24    1
    26    24    25    2
    27    17    18   ar
    28    18    19   ar
    29     3     4   ar
    30     4     5   ar
    31     5     6   ar
    32     6    37    1
    33    37    38    3
    34     6     1   ar
    35    19    10    1
    36    19    14   ar
    37    31    32    1
    38    26    27    1
    39     7    20    1
    40    22    23    1
@<TRIPOS>MOLECULE
*****
 38 40 0 0 0
SMALL
GASTEIGER

@<TRIPOS>ATOM
      1 C         142.1195  142.2044  160.2925 C.ar    1  UNL1        0.0587
      2 C         141.2138  141.7649  161.4045 C.ar    1  UNL1        0.0495
      3 C         141.4097  140.4229  162.0454 C.ar    1  UNL1        0.1366
      4 N         142.5113  139.5204  161.5742 N.ar    1  UNL1       -0.2282
      5 C         143.4171  139.9600  160.4622 C.ar    1  UNL1        0.1118
      6 C         143.2211  141.3020  159.8214 C.ar    1  UNL1        0.1007
      7 N         140.5040  139.9834  163.1573 N.am    1  UNL1       -0.2531
      8 C         140.8171  140.3634  164.5742 C.2     1  UNL1        0.3135
      9 O         142.0358  141.1829  164.8792 O.2     1  UNL1       -0.2518
     10 N         139.9113  139.9238  165.6862 N.am    1  UNL1       -0.2282
     11 C         138.6926  139.1043  165.3813 C.3     1  UNL1        0.1015
     12 C         137.7869  138.6648  166.4933 C.3     1  UNL1        0.0268
     13 C         138.1000  139.0448  167.9102 C.3     1  UNL1        0.0310
     14 C         139.3187  139.8643  168.2151 C.ar    1  UNL1        0.0097
     15 C         139.6318  140.2443  169.6320 C.ar    1  UNL1       -0.0018
     16 C         140.8505  141.0638  169.9369 C.ar    1  UNL1        0.0277
     17 CA        141.7563  141.5033  168.8249 C.ar    1  UNL1        0.1231
     18 N         141.4432  141.1233  167.4080 N.ar    1  UNL1       -0.2275
     19 C         140.2244  140.3038  167.1031 C.ar    1  UNL1        0.1345
     20 H         139.7041  139.4455  162.9572 H       1  UNL1        0.1578
     21 C         141.1636  141.4438  171.3538 C.3     1  UNL1        0.1652
     22 O         142.2322  140.7099  172.1085 O.3     1  UNL1       -0.3772
     23 H         141.9581  139.7894  172.2441 H       1  UNL1        0.2109
     24 C         142.9751  142.3228  169.1299 C.2     1  UNL1        0.2529
     25 O         143.8094  142.8714  168.0104 O.2     1  UNL1       -0.2815
     26 N         141.9235  143.5464  159.6517 N.pl3   1  UNL1       -0.3301
     27 H         142.7028  144.0635  159.3441 H       1  UNL1        0.1469
     28 C         140.5403  144.1005  159.4795 C.3     1  UNL1        0.1157
     29 C         139.6546  143.5803  158.3864 C.3     1  UNL1        0.1209
     30 C         138.7689  143.0600  157.2933 C.3     1  UNL1        0.0325
     31 O         138.6427  143.1550  159.4087 O.3     1  UNL1       -0.3837
     32 H         137.8846  142.7461  158.9626 H       1  UNL1        0.2104
     33 C         140.6665  144.0055  157.3640 C.3     1  UNL1        0.1010
     34 C         139.7594  146.3652  156.7645 C.3     1  UNL1        0.0897
     35 N         140.9079  145.4639  157.1092 N.3     1  UNL1       -0.2683
     36 C         142.2977  146.0210  157.1991 C.3     1  UNL1        0.0897
     37 C         144.1268  141.7415  158.7094 C.1     1  UNL1        0.1032
     38 N         145.0326  142.1810  157.5974 N.1     1  UNL1       -0.1907
@<TRIPOS>BOND
     1    34    35    1
     2    35    36    1
     3    35    33    1
     4    33    29    1
     5    29    30    1
     6    29    31    1
     7    29    28    1
     8    28    26    1
     9    26     1    1
    10     1     2   ar
    11     2     3   ar
    12     3     7    1
    13     7     8   am
    14     8     9    2
    15     8    10   am
    16    10    11    1
    17    11    12    1
    18    12    13    1
    19    13    14    1
    20    14    15   ar
    21    15    16   ar
    22    16    21    1
    23    21    22    1
    24    16    17   ar
    25    17    24    1
    26    24    25    2
    27    17    18   ar
    28    18    19   ar
    29     3     4   ar
    30     4     5   ar
    31     5     6   ar
    32     6    37    1
    33    37    38    3
    34     6     1   ar
    35    19    10    1
    36    19    14   ar
    37    31    32    1
    38    26    27    1
    39     7    20    1
    40    22    23    1
@<TRIPOS>MOLECULE
*****
 38 40 0 0 0
SMALL
GASTEIGER

@<TRIPOS>ATOM
      1 C         138.4876  139.9611  163.6960 C.ar    1  UNL1        0.0587
      2 C         139.0241  140.1111  162.3034 C.ar    1  UNL1        0.0495
      3 C         139.7615  138.9758  161.6573 C.ar    1  UNL1        0.1366
      4 N         139.9623  137.6904  162.4040 N.ar    1  UNL1       -0.2282
      5 C         139.4257  137.5404  163.7967 C.ar    1  UNL1        0.1118
      6 C         138.6884  138.6757  164.4427 C.ar    1  UNL1        0.1007
      7 N         140.2980  139.1259  160.2646 N.am    1  UNL1       -0.2531
      8 C         139.3750  139.4932  159.1408 C.2     1  UNL1        0.3135
      9 O         137.9154  139.7106  159.4096 O.2     1  UNL1       -0.2518
     10 N         139.9116  139.6433  157.7481 N.am    1  UNL1       -0.2282
     11 C         141.3712  139.4260  157.4792 C.3     1  UNL1        0.1015
     12 C         141.9077  139.5760  156.0866 C.3     1  UNL1        0.0268
     13 C         140.9846  139.9434  154.9627 C.3     1  UNL1        0.0310
     14 C         139.5250  140.1607  155.2316 C.ar    1  UNL1        0.0097
     15 C         138.6020  140.5281  154.1077 C.ar    1  UNL1       -0.0018
     16 C         137.1424  140.7454  154.3766 C.ar    1  UNL1        0.0277
     17 CA        136.6058  140.5954  155.7693 C.ar    1  UNL1        0.1231
     18 N         137.5288  140.2280  156.8931 N.ar    1  UNL1       -0.2275
     19 C         138.9885  140.0107  156.6242 C.ar    1  UNL1        0.1345
     20 H         141.2560  138.9832  160.0881 H       1  UNL1        0.1578
     21 C         136.2193  141.1128  153.2527 C.3     1  UNL1        0.1652
     22 O         135.2571  140.0981  152.7103 O.3     1  UNL1       -0.3772
     23 H         135.7507  139.3787  152.2864 H       1  UNL1        0.2109
     24 C         135.1462  140.8127  156.0381 C.2     1  UNL1        0.2529
     25 O         134.1439  139.7794  155.6165 O.2     1  UNL1       -0.2815
     26 N         137.7502  141.0964  164.3420 N.pl3   1  UNL1       -0.3301
     27 H         137.3067  140.9642  165.2109 H       1  UNL1        0.1469
     28 C         137.6886  142.4330  163.6641 C.3     1  UNL1        0.1157
     29 C         138.4756  143.5876  164.2097 C.3     1  UNL1        0.1209
     30 C         139.2626  144.7422  164.7554 C.3     1  UNL1        0.0325
     31 O         138.8505  142.7661  165.4074 O.3     1  UNL1       -0.3837
     32 H         139.4112  143.2929  165.9982 H       1  UNL1        0.2104
     33 C         138.1007  144.4092  163.0121 C.3     1  UNL1        0.1010
     34 C         139.7701  143.6584  161.1683 C.3     1  UNL1        0.0897
     35 N         139.1362  144.7482  161.9811 N.3     1  UNL1       -0.2683
     36 C         139.5378  146.1768  161.7630 C.3     1  UNL1        0.0897
     37 C         138.1519  138.5256  165.8354 C.1     1  UNL1        0.1032
     38 N         137.6153  138.3756  167.2281 N.1     1  UNL1       -0.1907
@<TRIPOS>BOND
     1    34    35    1
     2    35    36    1
     3    35    33    1
     4    33    29    1
     5    29    30    1
     6    29    31    1
     7    29    28    1
     8    28    26    1
     9    26     1    1
    10     1     2   ar
    11     2     3   ar
    12     3     7    1
    13     7     8   am
    14     8     9    2
    15     8    10   am
    16    10    11    1
    17    11    12    1
    18    12    13    1
    19    13    14    1
    20    14    15   ar
    21    15    16   ar
    22    16    21    1
    23    21    22    1
    24    16    17   ar
    25    17    24    1
    26    24    25    2
    27    17    18   ar
    28    18    19   ar
    29     3     4   ar
    30     4     5   ar
    31     5     6   ar
    32     6    37    1
    33    37    38    3
    34     6     1   ar
    35    19    10    1
    36    19    14   ar
    37    31    32    1
    38    26    27    1
    39     7    20    1
    40    22    23    1
@<TRIPOS>MOLECULE
*****
 38 40 0 0 0
SMALL
GASTEIGER

@<TRIPOS>ATOM
      1 C         138.3277  139.6807  163.6755 C.ar    1  UNL1        0.0587
      2 C         138.5916  139.5083  162.2090 C.ar    1  UNL1        0.0495
      3 C         139.3955  138.3384  161.7240 C.ar    1  UNL1        0.1366
      4 N         139.9356  137.3410  162.7056 N.ar    1  UNL1       -0.2282
      5 C         139.6717  137.5135  164.1722 C.ar    1  UNL1        0.1118
      6 C         138.8678  138.6833  164.6571 C.ar    1  UNL1        0.1007
      7 N         139.6593  138.1660  160.2576 N.am    1  UNL1       -0.2531
      8 C         140.4938  139.1724  159.5222 C.2     1  UNL1        0.3135
      9 O         141.0645  140.3512  160.2533 O.2     1  UNL1       -0.2518
     10 N         140.7577  138.9999  158.0556 N.am    1  UNL1       -0.2282
     11 C         140.1870  137.8211  157.3245 C.3     1  UNL1        0.1015
     12 C         140.4508  137.6486  155.8580 C.3     1  UNL1        0.0268
     13 C         141.2853  138.6551  155.1227 C.3     1  UNL1        0.0310
     14 C         141.8560  139.8339  155.8538 C.ar    1  UNL1        0.0097
     15 C         142.6905  140.8403  155.1185 C.ar    1  UNL1       -0.0018
     16 C         143.2612  142.0191  155.8496 C.ar    1  UNL1        0.0277
     17 CA        142.9974  142.1916  157.3162 C.ar    1  UNL1        0.1231
     18 N         142.1629  141.1852  158.0515 N.ar    1  UNL1       -0.2275
     19 C         141.5922  140.0063  157.3203 C.ar    1  UNL1        0.1345
     20 H         139.2848  137.3923  159.7777 H       1  UNL1        0.1578
     21 C         144.0957  143.0256  155.1143 C.3     1  UNL1        0.1652
     22 O         145.5837  143.0465  155.3018 O.3     1  UNL1       -0.3772
     23 H         145.7910  143.2999  156.2149 H       1  UNL1        0.2109
     24 C         143.5681  143.3705  158.0473 C.2     1  UNL1        0.2529
     25 O         142.7454  144.6119  158.2265 O.2     1  UNL1       -0.2815
     26 N         137.5238  140.8506  164.1604 N.pl3   1  UNL1       -0.3301
     27 H         137.2319  140.8917  165.0997 H       1  UNL1        0.1469
     28 C         137.1647  141.9577  163.2142 C.3     1  UNL1        0.1157
     29 C         137.8883  143.2697  163.2857 C.3     1  UNL1        0.1209
     30 C         138.6118  144.5817  163.3573 C.3     1  UNL1        0.0325
     31 O         137.4704  143.5769  161.8783 O.3     1  UNL1       -0.3837
     32 H         137.8215  144.4430  161.6185 H       1  UNL1        0.2104
     33 C         138.3062  142.9625  164.6932 C.3     1  UNL1        0.1010
     34 C         140.2516  143.0315  166.4139 C.3     1  UNL1        0.0897
     35 N         139.7580  142.7756  165.0207 N.3     1  UNL1       -0.2683
     36 C         140.7163  142.3329  163.9550 C.3     1  UNL1        0.0897
     37 C         138.6040  138.8558  166.1236 C.1     1  UNL1        0.1032
     38 N         138.3402  139.0281  167.5901 N.1     1  UNL1       -0.1907
@<TRIPOS>BOND
     1    34    35    1
     2    35    36    1
     3    35    33    1
     4    33    29    1
     5    29    30    1
     6    29    31    1
     7    29    28    1
     8    28    26    1
     9    26     1    1
    10     1     2   ar
    11     2     3   ar
    12     3     7    1
    13     7     8   am
    14     8     9    2
    15     8    10   am
    16    10    11    1
    17    11    12    1
    18    12    13    1
    19    13    14    1
    20    14    15   ar
    21    15    16   ar
    22    16    21    1
    23    21    22    1
    24    16    17   ar
    25    17    24    1
    26    24    25    2
    27    17    18   ar
    28    18    19   ar
    29     3     4   ar
    30     4     5   ar
    31     5     6   ar
    32     6    37    1
    33    37    38    3
    34     6     1   ar
    35    19    10    1
    36    19    14   ar
    37    31    32    1
    38    26    27    1
    39     7    20    1
    40    22    23    1
@<TRIPOS>MOLECULE
*****
 38 40 0 0 0
SMALL
GASTEIGER

@<TRIPOS>ATOM
      1 C         139.4553  139.6849  163.6811 C.ar    1  UNL1        0.0587
      2 C         139.9323  140.5650  162.5640 C.ar    1  UNL1        0.0495
      3 C         139.4688  141.9892  162.4811 C.ar    1  UNL1        0.1366
      4 N         138.5283  142.5333  163.5152 N.ar    1  UNL1       -0.2282
      5 C         138.0514  141.6531  164.6323 C.ar    1  UNL1        0.1118
      6 C         138.5149  140.2290  164.7152 C.ar    1  UNL1        0.1007
      7 N         139.9458  142.8693  161.3640 N.am    1  UNL1       -0.2531
      8 C         139.2889  142.7946  160.0176 C.2     1  UNL1        0.3135
      9 O         138.1550  141.8398  159.7882 O.2     1  UNL1       -0.2518
     10 N         139.7659  143.6748  158.9005 N.am    1  UNL1       -0.2282
     11 C         140.8998  144.6296  159.1298 C.3     1  UNL1        0.1015
     12 C         141.3768  145.5097  158.0128 C.3     1  UNL1        0.0268
     13 C         140.7199  145.4350  156.6663 C.3     1  UNL1        0.0310
     14 C         139.5860  144.4802  156.4370 C.ar    1  UNL1        0.0097
     15 C         138.9291  144.4055  155.0905 C.ar    1  UNL1       -0.0018
     16 C         137.7953  143.4507  154.8611 C.ar    1  UNL1        0.0277
     17 CA        137.3182  142.5705  155.9782 C.ar    1  UNL1        0.1231
     18 N         137.9751  142.6452  157.3247 N.ar    1  UNL1       -0.2275
     19 C         139.1091  143.6001  157.5540 C.ar    1  UNL1        0.1345
     20 H         140.6900  143.4960  161.5145 H       1  UNL1        0.1578
     21 C         137.1384  143.3760  153.5147 C.3     1  UNL1        0.1652
     22 O         136.3624  144.5487  152.9927 O.3     1  UNL1       -0.3772
     23 H         135.5796  144.6913  153.5475 H       1  UNL1        0.2109
     24 C         136.1844  141.6158  155.7488 C.2     1  UNL1        0.2529
     25 O         136.0368  140.4034  156.6199 O.2     1  UNL1       -0.2815
     26 N         139.9189  138.2608  163.7640 N.pl3   1  UNL1       -0.3301
     27 H         139.2873  137.5265  163.5873 H       1  UNL1        0.1469
     28 C         141.3446  137.9553  164.1161 C.3     1  UNL1        0.1157
     29 C         142.4053  138.0019  163.0564 C.3     1  UNL1        0.1209
     30 C         143.4659  138.0484  161.9968 C.3     1  UNL1        0.0325
     31 O         141.5131  137.2307  162.1295 O.3     1  UNL1       -0.3837
     32 H         141.9674  137.0929  161.2836 H       1  UNL1        0.2104
     33 C         143.2975  138.7731  163.9833 C.3     1  UNL1        0.1010
     34 C         142.4772  140.7027  165.5176 C.3     1  UNL1        0.0897
     35 N         143.0546  140.2351  164.2144 N.3     1  UNL1       -0.2683
     36 C         143.3891  141.2296  163.1425 C.3     1  UNL1        0.0897
     37 C         138.0379  139.3489  165.8323 C.1     1  UNL1        0.1032
     38 N         137.5608  138.4688  166.9494 N.1     1  UNL1       -0.1907
@<TRIPOS>BOND
     1    34    35    1
     2    35    36    1
     3    35    33    1
     4    33    29    1
     5    29    30    1
     6    29    31    1
     7    29    28    1
     8    28    26    1
     9    26     1    1
    10     1     2   ar
    11     2     3   ar
    12     3     7    1
    13     7     8   am
    14     8     9    2
    15     8    10   am
    16    10    11    1
    17    11    12    1
    18    12    13    1
    19    13    14    1
    20    14    15   ar
    21    15    16   ar
    22    16    21    1
    23    21    22    1
    24    16    17   ar
    25    17    24    1
    26    24    25    2
    27    17    18   ar
    28    18    19   ar
    29     3     4   ar
    30     4     5   ar
    31     5     6   ar
    32     6    37    1
    33    37    38    3
    34     6     1   ar
    35    19    10    1
    36    19    14   ar
    37    31    32    1
    38    26    27    1
    39     7    20    1
    40    22    23    1
@<TRIPOS>MOLECULE
*****
 38 40 0 0 0
SMALL
GASTEIGER

@<TRIPOS>ATOM
      1 C         142.1985  139.2973  157.9333 C.ar    1  UNL1        0.0587
      2 C         141.6073  140.2812  158.8988 C.ar    1  UNL1        0.0495
      3 C         140.1884  140.1211  159.3583 C.ar    1  UNL1        0.1366
      4 N         139.3607  138.9771  158.8521 N.ar    1  UNL1       -0.2282
      5 C         139.9520  137.9932  157.8865 C.ar    1  UNL1        0.1118
      6 C         141.3709  138.1533  157.4271 C.ar    1  UNL1        0.1007
      7 N         139.5972  141.1050  160.3239 N.am    1  UNL1       -0.2531
      8 C         140.1007  141.1656  161.7355 C.2     1  UNL1        0.3135
      9 O         141.1955  140.2424  162.1816 O.2     1  UNL1       -0.2518
     10 N         139.5094  142.1496  162.7011 N.am    1  UNL1       -0.2282
     11 C         138.4147  143.0729  162.2551 C.3     1  UNL1        0.1015
     12 C         137.8235  144.0568  163.2206 C.3     1  UNL1        0.0268
     13 C         138.3270  144.1174  164.6323 C.3     1  UNL1        0.0310
     14 C         139.4218  143.1941  165.0784 C.ar    1  UNL1        0.0097
     15 C         139.9253  143.2547  166.4900 C.ar    1  UNL1       -0.0018
     16 C         141.0201  142.3314  166.9361 C.ar    1  UNL1        0.0277
     17 CA        141.6113  141.3475  165.9705 C.ar    1  UNL1        0.1231
     18 N         141.1078  141.2869  164.5588 N.ar    1  UNL1       -0.2275
     19 C         140.0130  142.2102  164.1128 C.ar    1  UNL1        0.1345
     20 H         138.8786  141.7110  160.0311 H       1  UNL1        0.1578
     21 C         141.5236  142.3920  168.3477 C.3     1  UNL1        0.1652
     22 O         141.1294  141.3300  169.3309 O.3     1  UNL1       -0.3772
     23 H         140.1750  141.3811  169.4967 H       1  UNL1        0.2109
     24 C         142.7061  140.4242  166.4166 C.2     1  UNL1        0.2529
     25 O         142.3963  139.2862  167.3435 O.2     1  UNL1       -0.2815
     26 N         143.6174  139.4574  157.4739 N.pl3   1  UNL1       -0.3301
     27 H         144.3422  138.9802  157.9388 H       1  UNL1        0.1469
     28 C         143.9321  140.3447  156.3061 C.3     1  UNL1        0.1157
     29 C         145.2550  141.0481  156.2336 C.3     1  UNL1        0.1209
     30 C         146.5779  141.7515  156.1612 C.3     1  UNL1        0.0325
     31 O         145.9540  139.7241  156.1430 O.3     1  UNL1       -0.3837
     32 H         146.9112  139.8675  156.0793 H       1  UNL1        0.2104
     33 C         144.5560  142.3722  156.3243 C.3     1  UNL1        0.1010
     34 C         142.6742  143.5853  157.6424 C.3     1  UNL1        0.0897
     35 N         143.9645  142.8203  157.6279 N.3     1  UNL1       -0.2683
     36 C         144.6631  142.5034  158.9168 C.3     1  UNL1        0.0897
     37 C         141.9621  137.1694  156.4615 C.1     1  UNL1        0.1032
     38 N         142.5533  136.1855  155.4959 N.1     1  UNL1       -0.1907
@<TRIPOS>BOND
     1    34    35    1
     2    35    36    1
     3    35    33    1
     4    33    29    1
     5    29    30    1
     6    29    31    1
     7    29    28    1
     8    28    26    1
     9    26     1    1
    10     1     2   ar
    11     2     3   ar
    12     3     7    1
    13     7     8   am
    14     8     9    2
    15     8    10   am
    16    10    11    1
    17    11    12    1
    18    12    13    1
    19    13    14    1
    20    14    15   ar
    21    15    16   ar
    22    16    21    1
    23    21    22    1
    24    16    17   ar
    25    17    24    1
    26    24    25    2
    27    17    18   ar
    28    18    19   ar
    29     3     4   ar
    30     4     5   ar
    31     5     6   ar
    32     6    37    1
    33    37    38    3
    34     6     1   ar
    35    19    10    1
    36    19    14   ar
    37    31    32    1
    38    26    27    1
    39     7    20    1
    40    22    23    1
@<TRIPOS>MOLECULE
*****
 38 40 0 0 0
SMALL
GASTEIGER

@<TRIPOS>ATOM
      1 C         143.2728  140.3175  159.6022 C.ar    1  UNL1        0.0587
      2 C         142.3048  139.8282  160.6384 C.ar    1  UNL1        0.0495
      3 C         141.9689  140.6918  161.8181 C.ar    1  UNL1        0.1366
      4 N         142.6009  142.0445  161.9615 N.ar    1  UNL1       -0.2282
      5 C         143.5689  142.5338  160.9252 C.ar    1  UNL1        0.1118
      6 C         143.9048  141.6702  159.7457 C.ar    1  UNL1        0.1007
      7 N         141.0009  140.2025  162.8542 N.am    1  UNL1       -0.2531
      8 C         141.1974  140.5674  164.2958 C.2     1  UNL1        0.3135
      9 O         142.3619  141.4216  164.7013 O.2     1  UNL1       -0.2518
     10 N         140.2294  140.0782  165.3320 N.am    1  UNL1       -0.2282
     11 C         139.0650  139.2240  164.9266 C.3     1  UNL1        0.1015
     12 C         138.0970  138.7348  165.9627 C.3     1  UNL1        0.0268
     13 C         138.2935  139.0997  167.4043 C.3     1  UNL1        0.0310
     14 C         139.4580  139.9538  167.8098 C.ar    1  UNL1        0.0097
     15 C         139.6545  140.3187  169.2514 C.ar    1  UNL1       -0.0018
     16 C         140.8190  141.1729  169.6568 C.ar    1  UNL1        0.0277
     17 CA        141.7870  141.6622  168.6207 C.ar    1  UNL1        0.1231
     18 N         141.5905  141.2973  167.1790 N.ar    1  UNL1       -0.2275
     19 C         140.4259  140.4431  166.7736 C.ar    1  UNL1        0.1345
     20 H         140.2366  139.6419  162.5881 H       1  UNL1        0.1578
     21 C         141.0155  141.5378  171.0984 C.3     1  UNL1        0.1652
     22 O         142.0356  140.8111  171.9237 O.3     1  UNL1       -0.3772
     23 H         141.7682  139.8843  172.0259 H       1  UNL1        0.2109
     24 C         142.9514  142.5163  169.0261 C.2     1  UNL1        0.2529
     25 O         144.0289  141.9488  169.9020 O.2     1  UNL1       -0.2815
     26 N         143.6087  139.4539  158.4227 N.pl3   1  UNL1       -0.3301
     27 H         144.5499  139.2846  158.1887 H       1  UNL1        0.1469
     28 C         142.5106  138.8484  157.5996 C.3     1  UNL1        0.1157
     29 C         142.1283  139.4670  156.2876 C.3     1  UNL1        0.1209
     30 C         141.7461  140.0857  154.9757 C.3     1  UNL1        0.0325
     31 O         141.8144  140.7563  156.9870 O.3     1  UNL1       -0.3837
     32 H         141.5137  141.4114  156.3380 H       1  UNL1        0.2104
     33 C         142.4422  138.1778  155.5881 C.3     1  UNL1        0.1010
     34 C         144.9376  138.7239  155.1137 C.3     1  UNL1        0.0897
     35 N         143.8664  137.7283  155.4474 N.3     1  UNL1       -0.2683
     36 C         144.2193  136.2832  155.6404 C.3     1  UNL1        0.0897
     37 C         144.8727  142.1595  158.7095 C.1     1  UNL1        0.1032
     38 N         145.8407  142.6487  157.6732 N.1     1  UNL1       -0.1907
@<TRIPOS>BOND
     1    34    35    1
     2    35    36    1
     3    35    33    1
     4    33    29    1
     5    29    30    1
     6    29    31    1
     7    29    28    1
     8    28    26    1
     9    26     1    1
    10     1     2   ar
    11     2     3   ar
    12     3     7    1
    13     7     8   am
    14     8     9    2
    15     8    10   am
    16    10    11    1
    17    11    12    1
    18    12    13    1
    19    13    14    1
    20    14    15   ar
    21    15    16   ar
    22    16    21    1
    23    21    22    1
    24    16    17   ar
    25    17    24    1
    26    24    25    2
    27    17    18   ar
    28    18    19   ar
    29     3     4   ar
    30     4     5   ar
    31     5     6   ar
    32     6    37    1
    33    37    38    3
    34     6     1   ar
    35    19    10    1
    36    19    14   ar
    37    31    32    1
    38    26    27    1
    39     7    20    1
    40    22    23    1
