@<TRIPOS>MOLECULE
*****
 32 35 0 0 0
SMALL
GASTEIGER

@<TRIPOS>ATOM
      1 O         142.5498  141.6315  162.7945 O.2     1  UNL1       -0.2729
      2 C         141.1747  141.9759  162.3043 C.2     1  UNL1        0.2451
      3 N         140.0205  141.0675  162.6090 N.am    1  UNL1       -0.2988
      4 H         139.1179  141.2935  162.2872 H       1  UNL1        0.1498
      5 C         140.9536  143.2287  161.5095 C.3     1  UNL1        0.1751
      6 C         141.5260  143.5261  160.1552 C.ar    1  UNL1        0.0089
      7 C         142.4210  142.7350  159.2480 C.ar    1  UNL1       -0.0021
      8 C         142.8375  143.3029  157.9237 C.ar    1  UNL1       -0.0003
      9 C         142.3591  144.6620  157.5066 C.ar    1  UNL1        0.0001
     10 C         141.4641  145.4531  158.4138 C.ar    1  UNL1        0.0043
     11 C         141.0475  144.8852  159.7381 C.ar    1  UNL1        0.0516
     12 C         140.1795  145.4276  160.8346 C.2     1  UNL1        0.2493
     13 O         139.4904  146.7600  160.8360 O.2     1  UNL1       -0.2699
     14 N         140.1214  144.4039  161.9293 N.am    1  UNL1       -0.2674
     15 C         139.3642  144.5327  163.2177 C.3     1  UNL1        0.0872
     16 C         139.7242  144.8960  164.6279 C.3     1  UNL1        0.0866
     17 C         138.2933  144.7149  165.0398 C.3     1  UNL1        0.2671
     18 F         136.8623  144.5339  165.4518 F       1  UNL1       -0.2042
     19 F         138.6533  145.0782  166.4500 F       1  UNL1       -0.2042
     20 C         137.9332  144.3517  163.6297 C.3     1  UNL1        0.0866
     21 C         140.2415  139.8147  163.4038 C.3     1  UNL1        0.1164
     22 C         139.9214  139.7899  164.8690 C.ar    1  UNL1       -0.0024
     23 C         140.8208  140.4885  165.8452 C.ar    1  UNL1        0.0005
     24 C         140.5006  140.4637  167.3104 C.ar    1  UNL1        0.0369
     25 C         139.2809  139.7402  167.7995 C.ar    1  UNL1        0.1468
     26 C         138.3815  139.0417  166.8233 C.ar    1  UNL1        0.0369
     27 C         138.7017  139.0665  165.3580 C.ar    1  UNL1        0.0005
     28 O         138.9608  139.7155  169.2647 O.3     1  UNL1       -0.4045
     29 C         139.8273  140.4628  170.2345 C.3     1  UNL1        0.5753
     30 F         140.6938  141.2102  171.2043 F       1  UNL1       -0.1328
     31 F         140.7574  139.2883  170.3086 F       1  UNL1       -0.1328
     32 F         138.8972  141.6373  170.1604 F       1  UNL1       -0.1328
@<TRIPOS>BOND
     1     1     2    2
     2     2     3   am
     3     3    21    1
     4    21    22    1
     5    22    23   ar
     6    23    24   ar
     7    24    25   ar
     8    25    28    1
     9    28    29    1
    10    29    30    1
    11    29    31    1
    12    29    32    1
    13    25    26   ar
    14    26    27   ar
    15     2     5    1
    16     5     6    1
    17     6     7   ar
    18     7     8   ar
    19     8     9   ar
    20     9    10   ar
    21    10    11   ar
    22    11    12    1
    23    12    13    2
    24    12    14   am
    25    14    15    1
    26    15    16    1
    27    16    17    1
    28    17    18    1
    29    17    19    1
    30    17    20    1
    31    27    22   ar
    32    14     5    1
    33    20    15    1
    34    11     6   ar
    35     3     4    1
@<TRIPOS>MOLECULE
*****
 32 35 0 0 0
SMALL
GASTEIGER

@<TRIPOS>ATOM
      1 O         142.1683  142.4955  164.8470 O.2     1  UNL1       -0.2729
      2 C         142.2736  141.2391  165.6595 C.2     1  UNL1        0.2451
      3 N         143.4213  140.2983  165.4405 N.am    1  UNL1       -0.2988
      4 H         143.4904  139.4737  165.9738 H       1  UNL1        0.1498
      5 C         141.2312  140.9234  166.6909 C.3     1  UNL1        0.1751
      6 C         141.0673  141.6062  168.0164 C.ar    1  UNL1        0.0089
      7 C         141.8265  142.7217  168.6715 C.ar    1  UNL1       -0.0021
      8 C         141.4230  143.2052  170.0329 C.ar    1  UNL1       -0.0003
      9 C         140.2603  142.5732  170.7391 C.ar    1  UNL1        0.0001
     10 C         139.5011  141.4577  170.0840 C.ar    1  UNL1        0.0043
     11 C         139.9046  140.9742  168.7227 C.ar    1  UNL1        0.0516
     12 C         139.3500  139.9008  167.8336 C.2     1  UNL1        0.2493
     13 O         138.1808  139.0145  168.1456 O.2     1  UNL1       -0.2699
     14 N         140.1699  139.8694  166.5779 N.am    1  UNL1       -0.2674
     15 C         139.9645  138.9462  165.4137 C.3     1  UNL1        0.0872
     16 C         138.7764  138.4836  164.6235 C.3     1  UNL1        0.0866
     17 C         139.6741  137.6405  163.7673 C.3     1  UNL1        0.2671
     18 F         140.5719  136.7974  162.9109 F       1  UNL1       -0.2042
     19 F         138.4859  137.1780  162.9771 F       1  UNL1       -0.2042
     20 C         140.8623  138.1030  164.5574 C.3     1  UNL1        0.0866
     21 C         144.4636  140.6141  164.4091 C.3     1  UNL1        0.1164
     22 C         144.2545  140.2038  162.9816 C.ar    1  UNL1       -0.0024
     23 C         144.0489  138.7580  162.6391 C.ar    1  UNL1        0.0005
     24 C         143.8398  138.3478  161.2116 C.ar    1  UNL1        0.0369
     25 C         143.8362  139.3833  160.1264 C.ar    1  UNL1        0.1468
     26 C         144.0417  140.8292  160.4688 C.ar    1  UNL1        0.0369
     27 C         144.2509  141.2394  161.8965 C.ar    1  UNL1        0.0005
     28 O         143.6270  138.9730  158.6988 O.3     1  UNL1       -0.4045
     29 C         142.3223  138.3654  158.2765 C.3     1  UNL1        0.5753
     30 F         141.0175  137.7578  157.8541 F       1  UNL1       -0.1328
     31 F         142.9626  137.0092  158.2495 F       1  UNL1       -0.1328
     32 F         141.6820  139.7216  158.3034 F       1  UNL1       -0.1328
@<TRIPOS>BOND
     1     1     2    2
     2     2     3   am
     3     3    21    1
     4    21    22    1
     5    22    23   ar
     6    23    24   ar
     7    24    25   ar
     8    25    28    1
     9    28    29    1
    10    29    30    1
    11    29    31    1
    12    29    32    1
    13    25    26   ar
    14    26    27   ar
    15     2     5    1
    16     5     6    1
    17     6     7   ar
    18     7     8   ar
    19     8     9   ar
    20     9    10   ar
    21    10    11   ar
    22    11    12    1
    23    12    13    2
    24    12    14   am
    25    14    15    1
    26    15    16    1
    27    16    17    1
    28    17    18    1
    29    17    19    1
    30    17    20    1
    31    27    22   ar
    32    14     5    1
    33    20    15    1
    34    11     6   ar
    35     3     4    1
@<TRIPOS>MOLECULE
*****
 32 35 0 0 0
SMALL
GASTEIGER

@<TRIPOS>ATOM
      1 O         140.8675  141.0263  162.4373 O.2     1  UNL1       -0.2729
      2 C         141.7360  142.2458  162.3458 C.2     1  UNL1        0.2451
      3 N         143.0391  142.2958  163.0872 N.am    1  UNL1       -0.2988
      4 H         143.6092  143.0962  163.0272 H       1  UNL1        0.1498
      5 C         141.3015  143.4153  161.5131 C.3     1  UNL1        0.1751
      6 C         141.7934  143.7481  160.1356 C.ar    1  UNL1        0.0089
      7 C         142.7871  143.0761  159.2352 C.ar    1  UNL1       -0.0021
      8 C         143.0822  143.6518  157.8819 C.ar    1  UNL1       -0.0003
      9 C         142.3836  144.8996  157.4291 C.ar    1  UNL1        0.0001
     10 C         141.3899  145.5716  158.3296 C.ar    1  UNL1        0.0043
     11 C         141.0947  144.9958  159.6828 C.ar    1  UNL1        0.0516
     12 C         140.1711  145.4342  160.7805 C.2     1  UNL1        0.2493
     13 O         139.2768  146.6381  160.7519 O.2     1  UNL1       -0.2699
     14 N         140.2989  144.4574  161.9116 N.am    1  UNL1       -0.2674
     15 C         139.5548  144.5130  163.2128 C.3     1  UNL1        0.0872
     16 C         138.1135  144.4101  163.6157 C.3     1  UNL1        0.0866
     17 C         138.5024  144.5916  165.0530 C.3     1  UNL1        0.2671
     18 F         138.8912  144.7730  166.4904 F       1  UNL1       -0.2042
     19 F         137.0611  144.4887  165.4559 F       1  UNL1       -0.2042
     20 C         139.9436  144.6944  164.6502 C.3     1  UNL1        0.0866
     21 C         143.4736  141.1263  163.9199 C.3     1  UNL1        0.1164
     22 C         142.9573  140.9692  165.3194 C.ar    1  UNL1       -0.0024
     23 C         143.0879  139.6511  166.0235 C.ar    1  UNL1        0.0005
     24 C         142.5716  139.4941  167.4231 C.ar    1  UNL1        0.0369
     25 C         141.9247  140.6551  168.1186 C.ar    1  UNL1        0.1468
     26 C         141.7942  141.9731  167.4145 C.ar    1  UNL1        0.0369
     27 C         142.3105  142.1302  166.0149 C.ar    1  UNL1        0.0005
     28 O         141.4085  140.4980  169.5182 O.3     1  UNL1       -0.4045
     29 C         139.9714  140.7983  169.8256 C.3     1  UNL1        0.5753
     30 F         138.5343  141.0985  170.1331 F       1  UNL1       -0.1328
     31 F         140.4009  141.8350  170.8209 F       1  UNL1       -0.1328
     32 F         139.5418  139.7615  168.8304 F       1  UNL1       -0.1328
@<TRIPOS>BOND
     1     1     2    2
     2     2     3   am
     3     3    21    1
     4    21    22    1
     5    22    23   ar
     6    23    24   ar
     7    24    25   ar
     8    25    28    1
     9    28    29    1
    10    29    30    1
    11    29    31    1
    12    29    32    1
    13    25    26   ar
    14    26    27   ar
    15     2     5    1
    16     5     6    1
    17     6     7   ar
    18     7     8   ar
    19     8     9   ar
    20     9    10   ar
    21    10    11   ar
    22    11    12    1
    23    12    13    2
    24    12    14   am
    25    14    15    1
    26    15    16    1
    27    16    17    1
    28    17    18    1
    29    17    19    1
    30    17    20    1
    31    27    22   ar
    32    14     5    1
    33    20    15    1
    34    11     6   ar
    35     3     4    1
@<TRIPOS>MOLECULE
*****
 32 35 0 0 0
SMALL
GASTEIGER

@<TRIPOS>ATOM
      1 O         142.4603  140.7440  164.5783 O.2     1  UNL1       -0.2729
      2 C         141.7141  141.6892  165.4725 C.2     1  UNL1        0.2451
      3 N         141.7864  143.1675  165.2281 N.am    1  UNL1       -0.2988
      4 H         141.2967  143.7880  165.8150 H       1  UNL1        0.1498
      5 C         140.8957  141.1564  166.6110 C.3     1  UNL1        0.1751
      6 C         141.0612  141.5131  168.0585 C.ar    1  UNL1        0.0089
      7 C         142.0131  142.4339  168.7628 C.ar    1  UNL1       -0.0021
      8 C         141.9397  142.5920  170.2526 C.ar    1  UNL1       -0.0003
      9 C         140.9143  141.8294  171.0381 C.ar    1  UNL1        0.0001
     10 C         139.9624  140.9086  170.3338 C.ar    1  UNL1        0.0043
     11 C         140.0358  140.7505  168.8440 C.ar    1  UNL1        0.0516
     12 C         139.2366  139.9225  167.8820 C.2     1  UNL1        0.2493
     13 O         138.1047  139.0047  168.2376 O.2     1  UNL1       -0.2699
     14 N         139.7680  140.1733  166.5019 N.am    1  UNL1       -0.2674
     15 C         139.2608  139.5504  165.2351 C.3     1  UNL1        0.0872
     16 C         139.4576  138.2310  164.5491 C.3     1  UNL1        0.0866
     17 C         138.5435  138.6695  163.4436 C.3     1  UNL1        0.2671
     18 F         137.6295  139.1080  162.3380 F       1  UNL1       -0.2042
     19 F         138.7403  137.3501  162.7576 F       1  UNL1       -0.2042
     20 C         138.3468  139.9889  164.1295 C.3     1  UNL1        0.0866
     21 C         142.6049  143.7003  164.0896 C.3     1  UNL1        0.1164
     22 C         141.9266  144.2131  162.8539 C.ar    1  UNL1       -0.0024
     23 C         140.8515  145.2532  162.9652 C.ar    1  UNL1        0.0005
     24 C         140.1732  145.7659  161.7295 C.ar    1  UNL1        0.0369
     25 C         140.5700  145.2385  160.3824 C.ar    1  UNL1        0.1468
     26 C         141.6451  144.1985  160.2711 C.ar    1  UNL1        0.0369
     27 C         142.3234  143.6857  161.5069 C.ar    1  UNL1        0.0005
     28 O         139.8917  145.7513  159.1467 O.3     1  UNL1       -0.4045
     29 C         140.2830  145.2184  157.8003 C.3     1  UNL1        0.5753
     30 F         140.6743  144.6855  156.4539 F       1  UNL1       -0.1328
     31 F         139.3047  144.0929  157.9614 F       1  UNL1       -0.1328
     32 F         141.2613  146.3440  157.6392 F       1  UNL1       -0.1328
@<TRIPOS>BOND
     1     1     2    2
     2     2     3   am
     3     3    21    1
     4    21    22    1
     5    22    23   ar
     6    23    24   ar
     7    24    25   ar
     8    25    28    1
     9    28    29    1
    10    29    30    1
    11    29    31    1
    12    29    32    1
    13    25    26   ar
    14    26    27   ar
    15     2     5    1
    16     5     6    1
    17     6     7   ar
    18     7     8   ar
    19     8     9   ar
    20     9    10   ar
    21    10    11   ar
    22    11    12    1
    23    12    13    2
    24    12    14   am
    25    14    15    1
    26    15    16    1
    27    16    17    1
    28    17    18    1
    29    17    19    1
    30    17    20    1
    31    27    22   ar
    32    14     5    1
    33    20    15    1
    34    11     6   ar
    35     3     4    1
@<TRIPOS>MOLECULE
*****
 32 35 0 0 0
SMALL
GASTEIGER

@<TRIPOS>ATOM
      1 O         141.3877  145.4884  162.5775 O.2     1  UNL1       -0.2729
      2 C         141.4588  144.0926  162.0333 C.2     1  UNL1        0.2451
      3 N         140.8633  142.9543  162.8079 N.am    1  UNL1       -0.2988
      4 H         140.9100  142.0381  162.4507 H       1  UNL1        0.1498
      5 C         142.1255  143.8347  160.7145 C.3     1  UNL1        0.1751
      6 C         141.7148  144.4102  159.3916 C.ar    1  UNL1        0.0089
      7 C         140.6059  145.3428  159.0035 C.ar    1  UNL1       -0.0021
      8 C         140.4376  145.7525  157.5704 C.ar    1  UNL1       -0.0003
      9 C         141.3781  145.2296  156.5254 C.ar    1  UNL1        0.0001
     10 C         142.4869  144.2970  156.9135 C.ar    1  UNL1        0.0043
     11 C         142.6553  143.8873  158.3466 C.ar    1  UNL1        0.0516
     12 C         143.6472  142.9887  159.0237 C.2     1  UNL1        0.2493
     13 O         144.7696  142.2519  158.3548 O.2     1  UNL1       -0.2699
     14 N         143.3198  142.9562  160.4872 N.am    1  UNL1       -0.2674
     15 C         144.0572  142.1812  161.5386 C.3     1  UNL1        0.0872
     16 C         144.0892  140.7451  161.9709 C.3     1  UNL1        0.0866
     17 C         145.1001  141.0852  163.0256 C.3     1  UNL1        0.2671
     18 F         146.1110  141.4252  164.0804 F       1  UNL1       -0.2042
     19 F         145.1321  139.6491  163.4579 F       1  UNL1       -0.2042
     20 C         145.0681  142.5212  162.5934 C.3     1  UNL1        0.0866
     21 C         140.1967  143.2121  164.1266 C.3     1  UNL1        0.1164
     22 C         140.8929  142.8447  165.4034 C.ar    1  UNL1       -0.0024
     23 C         140.1072  142.7084  166.6738 C.ar    1  UNL1        0.0005
     24 C         140.8035  142.3409  167.9506 C.ar    1  UNL1        0.0369
     25 C         142.2856  142.1097  167.9569 C.ar    1  UNL1        0.1468
     26 C         143.0713  142.2459  166.6865 C.ar    1  UNL1        0.0369
     27 C         142.3750  142.6134  165.4097 C.ar    1  UNL1        0.0005
     28 O         142.9818  141.7422  169.2337 O.3     1  UNL1       -0.4045
     29 C         143.3791  142.8127  170.2064 C.3     1  UNL1        0.5753
     30 F         143.7764  143.8832  171.1791 F       1  UNL1       -0.1328
     31 F         141.9635  142.8933  170.6958 F       1  UNL1       -0.1328
     32 F         144.7947  142.7321  169.7170 F       1  UNL1       -0.1328
@<TRIPOS>BOND
     1     1     2    2
     2     2     3   am
     3     3    21    1
     4    21    22    1
     5    22    23   ar
     6    23    24   ar
     7    24    25   ar
     8    25    28    1
     9    28    29    1
    10    29    30    1
    11    29    31    1
    12    29    32    1
    13    25    26   ar
    14    26    27   ar
    15     2     5    1
    16     5     6    1
    17     6     7   ar
    18     7     8   ar
    19     8     9   ar
    20     9    10   ar
    21    10    11   ar
    22    11    12    1
    23    12    13    2
    24    12    14   am
    25    14    15    1
    26    15    16    1
    27    16    17    1
    28    17    18    1
    29    17    19    1
    30    17    20    1
    31    27    22   ar
    32    14     5    1
    33    20    15    1
    34    11     6   ar
    35     3     4    1
@<TRIPOS>MOLECULE
*****
 32 35 0 0 0
SMALL
GASTEIGER

@<TRIPOS>ATOM
      1 O         139.7188  144.5197  162.9451 O.2     1  UNL1       -0.2729
      2 C         140.3317  143.3242  162.2780 C.2     1  UNL1        0.2451
      3 N         141.6321  142.7699  162.7799 N.am    1  UNL1       -0.2988
      4 H         142.0345  141.9853  162.3420 H       1  UNL1        0.1498
      5 C         139.6444  142.6830  161.1090 C.3     1  UNL1        0.1751
      6 C         139.6107  143.2137  159.7064 C.ar    1  UNL1        0.0089
      7 C         140.2013  144.4442  159.0844 C.ar    1  UNL1       -0.0021
      8 C         139.9968  144.7183  157.6239 C.ar    1  UNL1       -0.0003
      9 C         139.2017  143.7618  156.7855 C.ar    1  UNL1        0.0001
     10 C         138.6111  142.5313  157.4075 C.ar    1  UNL1        0.0043
     11 C         138.8156  142.2572  158.8680 C.ar    1  UNL1        0.0516
     12 C         138.3579  141.1355  159.7524 C.2     1  UNL1        0.2493
     13 O         137.5328  139.9574  159.3265 O.2     1  UNL1       -0.2699
     14 N         138.8701  141.3986  161.1375 N.am    1  UNL1       -0.2674
     15 C         138.6472  140.5299  162.3398 C.3     1  UNL1        0.0872
     16 C         138.8395  139.0743  162.6471 C.3     1  UNL1        0.0866
     17 C         138.3320  139.3014  164.0402 C.3     1  UNL1        0.2671
     18 F         137.8245  139.5284  165.4334 F       1  UNL1       -0.2042
     19 F         138.5243  137.8458  164.3474 F       1  UNL1       -0.2042
     20 C         138.1397  140.7569  163.7330 C.3     1  UNL1        0.0866
     21 C         142.3195  143.4112  163.9488 C.3     1  UNL1        0.1164
     22 C         142.0022  142.9616  165.3442 C.ar    1  UNL1       -0.0024
     23 C         143.0859  142.3997  166.2159 C.ar    1  UNL1        0.0005
     24 C         142.7685  141.9502  167.6113 C.ar    1  UNL1        0.0369
     25 C         141.3674  142.0626  168.1352 C.ar    1  UNL1        0.1468
     26 C         140.2837  142.6246  167.2635 C.ar    1  UNL1        0.0369
     27 C         140.6011  143.0741  165.8680 C.ar    1  UNL1        0.0005
     28 O         141.0501  141.6131  169.5306 O.3     1  UNL1       -0.4045
     29 C         139.6845  141.0851  169.8562 C.3     1  UNL1        0.5753
     30 F         138.3188  140.5571  170.1819 F       1  UNL1       -0.1328
     31 F         139.3216  142.4037  170.4724 F       1  UNL1       -0.1328
     32 F         140.0473  139.7665  169.2400 F       1  UNL1       -0.1328
@<TRIPOS>BOND
     1     1     2    2
     2     2     3   am
     3     3    21    1
     4    21    22    1
     5    22    23   ar
     6    23    24   ar
     7    24    25   ar
     8    25    28    1
     9    28    29    1
    10    29    30    1
    11    29    31    1
    12    29    32    1
    13    25    26   ar
    14    26    27   ar
    15     2     5    1
    16     5     6    1
    17     6     7   ar
    18     7     8   ar
    19     8     9   ar
    20     9    10   ar
    21    10    11   ar
    22    11    12    1
    23    12    13    2
    24    12    14   am
    25    14    15    1
    26    15    16    1
    27    16    17    1
    28    17    18    1
    29    17    19    1
    30    17    20    1
    31    27    22   ar
    32    14     5    1
    33    20    15    1
    34    11     6   ar
    35     3     4    1
@<TRIPOS>MOLECULE
*****
 32 35 0 0 0
SMALL
GASTEIGER

@<TRIPOS>ATOM
      1 O         142.2530  142.7859  165.6532 O.2     1  UNL1       -0.2729
      2 C         142.2629  141.3655  166.1352 C.2     1  UNL1        0.2451
      3 N         143.2884  140.4034  165.6127 N.am    1  UNL1       -0.2988
      4 H         143.2949  139.4711  165.9290 H       1  UNL1        0.1498
      5 C         141.2474  140.9071  167.1395 C.3     1  UNL1        0.1751
      6 C         140.0345  140.0736  166.8495 C.ar    1  UNL1        0.0089
      7 C         139.5009  139.4868  165.5763 C.ar    1  UNL1       -0.0021
      8 C         138.2368  138.6796  165.5946 C.ar    1  UNL1       -0.0003
      9 C         137.5063  138.4591  166.8860 C.ar    1  UNL1        0.0001
     10 C         138.0399  139.0459  168.1592 C.ar    1  UNL1        0.0043
     11 C         139.3040  139.8531  168.1409 C.ar    1  UNL1        0.0516
     12 C         140.0655  140.5504  169.2290 C.2     1  UNL1        0.2493
     13 O         139.6914  140.5894  170.6811 O.2     1  UNL1       -0.2699
     14 N         141.2665  141.2018  168.6101 N.am    1  UNL1       -0.2674
     15 C         142.3045  142.0067  169.3347 C.3     1  UNL1        0.0872
     16 C         142.2738  143.1583  170.2953 C.3     1  UNL1        0.0866
     17 C         143.7724  143.1448  170.3593 C.3     1  UNL1        0.2671
     18 F         145.2710  143.1314  170.4233 F       1  UNL1       -0.2042
     19 F         143.7416  144.2965  171.3200 F       1  UNL1       -0.2042
     20 C         143.8031  141.9932  169.3987 C.3     1  UNL1        0.0866
     21 C         144.3039  140.8618  164.6084 C.3     1  UNL1        0.1164
     22 C         144.1668  140.4645  163.1685 C.ar    1  UNL1       -0.0024
     23 C         144.0784  141.5184  162.1048 C.ar    1  UNL1        0.0005
     24 C         143.9414  141.1211  160.6649 C.ar    1  UNL1        0.0369
     25 C         143.8926  139.6698  160.2886 C.ar    1  UNL1        0.1468
     26 C         143.9810  138.6159  161.3523 C.ar    1  UNL1        0.0369
     27 C         144.1181  139.0133  162.7923 C.ar    1  UNL1        0.0005
     28 O         143.7556  139.2726  158.8487 O.3     1  UNL1       -0.4045
     29 C         143.5224  140.3200  157.8006 C.3     1  UNL1        0.5753
     30 F         143.2892  141.3674  156.7525 F       1  UNL1       -0.1328
     31 F         142.0423  140.2054  158.0153 F       1  UNL1       -0.1328
     32 F         145.0025  140.4346  157.5859 F       1  UNL1       -0.1328
@<TRIPOS>BOND
     1     1     2    2
     2     2     3   am
     3     3    21    1
     4    21    22    1
     5    22    23   ar
     6    23    24   ar
     7    24    25   ar
     8    25    28    1
     9    28    29    1
    10    29    30    1
    11    29    31    1
    12    29    32    1
    13    25    26   ar
    14    26    27   ar
    15     2     5    1
    16     5     6    1
    17     6     7   ar
    18     7     8   ar
    19     8     9   ar
    20     9    10   ar
    21    10    11   ar
    22    11    12    1
    23    12    13    2
    24    12    14   am
    25    14    15    1
    26    15    16    1
    27    16    17    1
    28    17    18    1
    29    17    19    1
    30    17    20    1
    31    27    22   ar
    32    14     5    1
    33    20    15    1
    34    11     6   ar
    35     3     4    1
@<TRIPOS>MOLECULE
*****
 32 35 0 0 0
SMALL
GASTEIGER

@<TRIPOS>ATOM
      1 O         143.3309  141.5630  165.8138 O.2     1  UNL1       -0.2729
      2 C         141.9224  142.0112  166.0687 C.2     1  UNL1        0.2451
      3 N         141.3609  143.1829  165.3191 N.am    1  UNL1       -0.2988
      4 H         140.4364  143.4771  165.4864 H       1  UNL1        0.1498
      5 C         141.0753  141.2878  167.0733 C.3     1  UNL1        0.1751
      6 C         139.8987  140.4099  166.7653 C.ar    1  UNL1        0.0089
      7 C         139.2542  140.0130  165.4703 C.ar    1  UNL1       -0.0021
      8 C         138.0633  139.1010  165.4739 C.ar    1  UNL1       -0.0003
      9 C         137.5169  138.5859  166.7724 C.ar    1  UNL1        0.0001
     10 C         138.1614  138.9828  168.0674 C.ar    1  UNL1        0.0043
     11 C         139.3523  139.8948  168.0639 C.ar    1  UNL1        0.0516
     12 C         140.1913  140.4543  169.1743 C.2     1  UNL1        0.2493
     13 O         139.9991  140.1979  170.6396 O.2     1  UNL1       -0.2699
     14 N         141.2562  141.3152  168.5621 N.am    1  UNL1       -0.2674
     15 C         142.3159  142.0709  169.3077 C.3     1  UNL1        0.0872
     16 C         142.3181  143.2092  170.2846 C.3     1  UNL1        0.0866
     17 C         143.8145  143.1396  170.3623 C.3     1  UNL1        0.2671
     18 F         145.3109  143.0700  170.4399 F       1  UNL1       -0.2042
     19 F         143.8167  144.2779  171.3392 F       1  UNL1       -0.2042
     20 C         143.8123  142.0013  169.3854 C.3     1  UNL1        0.0866
     21 C         142.2080  143.9063  164.3145 C.3     1  UNL1        0.1164
     22 C         141.6287  144.2961  162.9869 C.ar    1  UNL1       -0.0024
     23 C         140.7680  145.5194  162.8742 C.ar    1  UNL1        0.0005
     24 C         140.1887  145.9091  161.5466 C.ar    1  UNL1        0.0369
     25 C         140.4701  145.0755  160.3316 C.ar    1  UNL1        0.1468
     26 C         141.3308  143.8522  160.4444 C.ar    1  UNL1        0.0369
     27 C         141.9101  143.4624  161.7721 C.ar    1  UNL1        0.0005
     28 O         139.8908  145.4653  159.0041 O.3     1  UNL1       -0.4045
     29 C         140.7574  145.4695  157.7797 C.3     1  UNL1        0.5753
     30 F         141.6239  145.4736  156.5553 F       1  UNL1       -0.1328
     31 F         139.6928  144.7310  157.0238 F       1  UNL1       -0.1328
     32 F         141.8219  146.2079  158.5356 F       1  UNL1       -0.1328
@<TRIPOS>BOND
     1     1     2    2
     2     2     3   am
     3     3    21    1
     4    21    22    1
     5    22    23   ar
     6    23    24   ar
     7    24    25   ar
     8    25    28    1
     9    28    29    1
    10    29    30    1
    11    29    31    1
    12    29    32    1
    13    25    26   ar
    14    26    27   ar
    15     2     5    1
    16     5     6    1
    17     6     7   ar
    18     7     8   ar
    19     8     9   ar
    20     9    10   ar
    21    10    11   ar
    22    11    12    1
    23    12    13    2
    24    12    14   am
    25    14    15    1
    26    15    16    1
    27    16    17    1
    28    17    18    1
    29    17    19    1
    30    17    20    1
    31    27    22   ar
    32    14     5    1
    33    20    15    1
    34    11     6   ar
    35     3     4    1
@<TRIPOS>MOLECULE
*****
 32 35 0 0 0
SMALL
GASTEIGER

@<TRIPOS>ATOM
      1 O         139.5443  140.0753  164.5061 O.2     1  UNL1       -0.2729
      2 C         140.6617  139.5479  165.3564 C.2     1  UNL1        0.2451
      3 N         141.2232  138.1818  165.0941 N.am    1  UNL1       -0.2988
      4 H         141.9566  137.8356  165.6522 H       1  UNL1        0.1498
      5 C         141.2178  140.3864  166.4689 C.3     1  UNL1        0.1751
      6 C         140.6068  140.5670  167.8269 C.ar    1  UNL1        0.0089
      7 C         139.3574  140.0151  168.4468 C.ar    1  UNL1       -0.0021
      8 C         138.9950  140.3800  169.8558 C.ar    1  UNL1       -0.0003
      9 C         139.8820  141.2968  170.6450 C.ar    1  UNL1        0.0001
     10 C         141.1314  141.8486  170.0251 C.ar    1  UNL1        0.0043
     11 C         141.4938  141.4838  168.6160 C.ar    1  UNL1        0.0516
     12 C         142.6530  141.8697  167.7457 C.2     1  UNL1        0.2493
     13 O         143.7841  142.7750  168.1342 O.2     1  UNL1       -0.2699
     14 N         142.4824  141.1915  166.4187 N.am    1  UNL1       -0.2674
     15 C         143.4130  141.2995  165.2472 C.3     1  UNL1        0.0872
     16 C         143.9475  140.3403  164.2253 C.3     1  UNL1        0.0866
     17 C         144.7290  141.4522  163.5906 C.3     1  UNL1        0.2671
     18 F         145.5106  142.5641  162.9558 F       1  UNL1       -0.2042
     19 F         145.2635  140.4930  162.5686 F       1  UNL1       -0.2042
     20 C         144.1946  142.4114  164.6124 C.3     1  UNL1        0.0866
     21 C         140.6671  137.3433  163.9816 C.3     1  UNL1        0.1164
     22 C         140.9059  137.7373  162.5542 C.ar    1  UNL1       -0.0024
     23 C         139.7439  138.0381  161.6546 C.ar    1  UNL1        0.0005
     24 C         139.9828  138.4321  160.2272 C.ar    1  UNL1        0.0369
     25 C         141.3838  138.5253  159.6992 C.ar    1  UNL1        0.1468
     26 C         142.5458  138.2244  160.5987 C.ar    1  UNL1        0.0369
     27 C         142.3069  137.8304  162.0263 C.ar    1  UNL1        0.0005
     28 O         141.6226  138.9193  158.2717 O.3     1  UNL1       -0.4045
     29 C         142.5603  138.1170  157.4190 C.3     1  UNL1        0.5753
     30 F         143.4979  137.3148  156.5663 F       1  UNL1       -0.1328
     31 F         143.5748  139.2190  157.4978 F       1  UNL1       -0.1328
     32 F         141.5457  137.0150  157.3401 F       1  UNL1       -0.1328
@<TRIPOS>BOND
     1     1     2    2
     2     2     3   am
     3     3    21    1
     4    21    22    1
     5    22    23   ar
     6    23    24   ar
     7    24    25   ar
     8    25    28    1
     9    28    29    1
    10    29    30    1
    11    29    31    1
    12    29    32    1
    13    25    26   ar
    14    26    27   ar
    15     2     5    1
    16     5     6    1
    17     6     7   ar
    18     7     8   ar
    19     8     9   ar
    20     9    10   ar
    21    10    11   ar
    22    11    12    1
    23    12    13    2
    24    12    14   am
    25    14    15    1
    26    15    16    1
    27    16    17    1
    28    17    18    1
    29    17    19    1
    30    17    20    1
    31    27    22   ar
    32    14     5    1
    33    20    15    1
    34    11     6   ar
    35     3     4    1
