@<TRIPOS>MOLECULE
*****
 30 34 0 0 0
SMALL
GASTEIGER

@<TRIPOS>ATOM
      1 C         141.5391  140.8378  164.5889 C.3     1  UNL1        0.0339
      2 C         140.7120  140.4994  165.7936 C.ar    1  UNL1        0.0095
      3 C         139.4327  139.7327  165.6337 C.ar    1  UNL1        0.0730
      4 C         138.6056  139.3942  166.8384 C.ar    1  UNL1        0.1531
      5 F         137.3263  138.6274  166.6785 F       1  UNL1       -0.2029
      6 C         139.0578  139.8224  168.2030 C.ar    1  UNL1        0.0321
      7 C         140.3370  140.5891  168.3629 C.ar    1  UNL1        0.0175
      8 C         140.7893  141.0174  169.7275 C.ar    1  UNL1        0.0271
      9 C         142.0685  141.7841  169.8874 C.ar    1  UNL1        0.1932
     10 F         142.5207  142.2124  171.2520 F       1  UNL1       -0.1994
     11 C         142.8956  142.1226  168.6827 C.ar    1  UNL1        0.2881
     12 O         144.1749  142.8894  168.8426 O.2     1  UNL1       -0.2645
     13 N         142.4435  141.6944  167.3181 N.ar    1  UNL1       -0.2958
     14 C         141.1641  140.9276  167.1582 C.ar    1  UNL1        0.0596
     15 N         138.9805  139.3044  164.2691 N.pl3   1  UNL1       -0.3046
     16 C         139.3275  138.0125  163.5904 C.3     1  UNL1        0.0922
     17 C         138.6634  138.0024  162.2455 C.3     1  UNL1        0.0357
     18 C         137.8930  138.2744  160.9874 C.3     1  UNL1        0.0190
     19 C         137.9059  139.2882  162.0930 C.3     1  UNL1        0.0590
     20 N         137.0300  140.2885  161.3986 N.3     1  UNL1       -0.3218
     21 C         138.1019  140.0928  163.3436 C.3     1  UNL1        0.1049
     22 H         136.8989  141.1014  162.0007 H       1  UNL1        0.1188
     23 H         136.1243  139.8652  161.1968 H       1  UNL1        0.1188
     24 C         139.9622  140.6789  170.9322 C.3     1  UNL1        0.0947
     25 N         139.8858  139.2609  171.4152 N.3     1  UNL1       -0.3174
     26 H         139.4116  138.6888  170.7164 H       1  UNL1        0.1192
     27 H         139.3652  139.2279  172.2918 H       1  UNL1        0.1192
     28 C         143.2706  142.0328  166.1134 C.3     1  UNL1        0.0886
     29 C         144.1936  141.6075  165.0102 C.3     1  UNL1        0.0246
     30 C         143.7801  143.0444  165.1300 C.3     1  UNL1        0.0246
@<TRIPOS>BOND
     1     1     2    1
     2     2     3   ar
     3     3    15    1
     4    15    16    1
     5    16    17    1
     6    17    18    1
     7    18    19    1
     8    19    20    1
     9    19    21    1
    10     3     4   ar
    11     4     5    1
    12     4     6   ar
    13     6     7   ar
    14     7     8   ar
    15     8    24    1
    16    24    25    1
    17     8     9   ar
    18     9    10    1
    19     9    11   ar
    20    11    12    2
    21    11    13   ar
    22    13    28    1
    23    28    29    1
    24    29    30    1
    25    13    14   ar
    26    14     2   ar
    27    21    15    1
    28    14     7   ar
    29    19    17    1
    30    30    28    1
    31    20    22    1
    32    20    23    1
    33    25    26    1
    34    25    27    1
@<TRIPOS>MOLECULE
*****
 30 34 0 0 0
SMALL
GASTEIGER

@<TRIPOS>ATOM
      1 C         142.2928  141.4561  164.1727 C.3     1  UNL1        0.0339
      2 C         141.7099  141.7160  165.5302 C.ar    1  UNL1        0.0095
      3 C         140.8135  142.8988  165.7476 C.ar    1  UNL1        0.0730
      4 C         140.2306  143.1586  167.1051 C.ar    1  UNL1        0.1531
      5 F         139.3340  144.3415  167.3224 F       1  UNL1       -0.2029
      6 C         140.5442  142.2357  168.2451 C.ar    1  UNL1        0.0321
      7 C         141.4407  141.0529  168.0277 C.ar    1  UNL1        0.0175
      8 C         141.7543  140.1299  169.1679 C.ar    1  UNL1        0.0271
      9 C         142.6508  138.9471  168.9505 C.ar    1  UNL1        0.1932
     10 F         142.9645  138.0241  170.0906 F       1  UNL1       -0.1994
     11 C         143.2337  138.6873  167.5930 C.ar    1  UNL1        0.2881
     12 O         144.1302  137.5044  167.3756 O.2     1  UNL1       -0.2645
     13 N         142.9201  139.6102  166.4529 N.ar    1  UNL1       -0.2958
     14 C         142.0235  140.7931  166.6703 C.ar    1  UNL1        0.0596
     15 N         140.4998  143.8218  164.6075 N.pl3   1  UNL1       -0.3046
     16 C         141.4550  144.7808  163.9611 C.3     1  UNL1        0.0922
     17 C         140.7215  145.4995  162.8678 C.3     1  UNL1        0.0357
     18 C         139.7456  146.0414  161.8658 C.3     1  UNL1        0.0190
     19 C         139.3129  144.9846  162.8385 C.3     1  UNL1        0.0590
     20 N         137.8986  144.8897  162.3480 N.3     1  UNL1       -0.3218
     21 C         139.1759  143.9477  163.9137 C.3     1  UNL1        0.1049
     22 H         137.3944  144.1933  162.8969 H       1  UNL1        0.1188
     23 H         137.8971  144.6146  161.3658 H       1  UNL1        0.1188
     24 C         141.1714  140.3898  170.5253 C.3     1  UNL1        0.0947
     25 N         140.0132  139.5711  171.0135 N.3     1  UNL1       -0.3174
     26 H         139.1942  139.7628  170.4365 H       1  UNL1        0.1192
     27 H         139.8103  139.8135  171.9832 H       1  UNL1        0.1192
     28 C         143.5030  139.3504  165.0954 C.3     1  UNL1        0.0886
     29 C         144.6336  139.4873  164.1193 C.3     1  UNL1        0.0246
     30 C         143.3819  138.7633  163.7204 C.3     1  UNL1        0.0246
@<TRIPOS>BOND
     1     1     2    1
     2     2     3   ar
     3     3    15    1
     4    15    16    1
     5    16    17    1
     6    17    18    1
     7    18    19    1
     8    19    20    1
     9    19    21    1
    10     3     4   ar
    11     4     5    1
    12     4     6   ar
    13     6     7   ar
    14     7     8   ar
    15     8    24    1
    16    24    25    1
    17     8     9   ar
    18     9    10    1
    19     9    11   ar
    20    11    12    2
    21    11    13   ar
    22    13    28    1
    23    28    29    1
    24    29    30    1
    25    13    14   ar
    26    14     2   ar
    27    21    15    1
    28    14     7   ar
    29    19    17    1
    30    30    28    1
    31    20    22    1
    32    20    23    1
    33    25    26    1
    34    25    27    1
@<TRIPOS>MOLECULE
*****
 30 34 0 0 0
SMALL
GASTEIGER

@<TRIPOS>ATOM
      1 C         140.1174  143.0935  166.2221 C.3     1  UNL1        0.0339
      2 C         140.4723  141.6682  165.9178 C.ar    1  UNL1        0.0095
      3 C         141.3814  140.9088  166.8380 C.ar    1  UNL1        0.0730
      4 C         141.7364  139.4835  166.5338 C.ar    1  UNL1        0.1531
      5 F         142.6456  138.7242  167.4541 F       1  UNL1       -0.2029
      6 C         141.1822  138.8176  165.3094 C.ar    1  UNL1        0.0321
      7 C         140.2730  139.5769  164.3892 C.ar    1  UNL1        0.0175
      8 C         139.7188  138.9110  163.1646 C.ar    1  UNL1        0.0271
      9 C         138.8096  139.6703  162.2444 C.ar    1  UNL1        0.1932
     10 F         138.2554  139.0043  161.0199 F       1  UNL1       -0.1994
     11 C         138.4547  141.0956  162.5487 C.ar    1  UNL1        0.2881
     12 O         137.5455  141.8549  161.6284 O.2     1  UNL1       -0.2645
     13 N         139.0089  141.7615  163.7731 N.ar    1  UNL1       -0.2958
     14 C         139.9181  141.0022  164.6934 C.ar    1  UNL1        0.0596
     15 N         141.9357  141.5748  168.0626 N.pl3   1  UNL1       -0.3046
     16 C         143.2508  142.2899  168.1585 C.3     1  UNL1        0.0922
     17 C         143.4001  142.7996  169.5612 C.3     1  UNL1        0.0357
     18 C         143.2687  143.1763  171.0072 C.3     1  UNL1        0.0190
     19 C         142.1772  142.3995  170.3324 C.3     1  UNL1        0.0590
     20 N         141.2855  142.3049  171.5348 N.3     1  UNL1       -0.3218
     21 C         141.2722  141.6426  169.4061 C.3     1  UNL1        0.1049
     22 H         140.4399  141.7892  171.2913 H       1  UNL1        0.1188
     23 H         141.0337  143.2431  171.8460 H       1  UNL1        0.1188
     24 C         140.0737  137.4857  162.8604 C.3     1  UNL1        0.0947
     25 N         141.3870  137.1618  162.2122 N.3     1  UNL1       -0.3174
     26 H         141.4043  137.5472  161.2680 H       1  UNL1        0.1192
     27 H         141.5040  136.1494  162.1683 H       1  UNL1        0.1192
     28 C         138.6540  143.1868  164.0773 C.3     1  UNL1        0.0886
     29 C         137.7624  144.1884  164.7495 C.3     1  UNL1        0.0246
     30 C         138.9309  144.6539  163.9321 C.3     1  UNL1        0.0246
@<TRIPOS>BOND
     1     1     2    1
     2     2     3   ar
     3     3    15    1
     4    15    16    1
     5    16    17    1
     6    17    18    1
     7    18    19    1
     8    19    20    1
     9    19    21    1
    10     3     4   ar
    11     4     5    1
    12     4     6   ar
    13     6     7   ar
    14     7     8   ar
    15     8    24    1
    16    24    25    1
    17     8     9   ar
    18     9    10    1
    19     9    11   ar
    20    11    12    2
    21    11    13   ar
    22    13    28    1
    23    28    29    1
    24    29    30    1
    25    13    14   ar
    26    14     2   ar
    27    21    15    1
    28    14     7   ar
    29    19    17    1
    30    30    28    1
    31    20    22    1
    32    20    23    1
    33    25    26    1
    34    25    27    1
@<TRIPOS>MOLECULE
*****
 30 34 0 0 0
SMALL
GASTEIGER

@<TRIPOS>ATOM
      1 C         140.7444  140.6698  164.3024 C.3     1  UNL1        0.0339
      2 C         141.6615  141.3086  165.3028 C.ar    1  UNL1        0.0095
      3 C         142.8713  142.0629  164.8367 C.ar    1  UNL1        0.0730
      4 C         143.7884  142.7017  165.8371 C.ar    1  UNL1        0.1531
      5 F         144.9982  143.4561  165.3708 F       1  UNL1       -0.2029
      6 C         143.4957  142.5862  167.3037 C.ar    1  UNL1        0.0321
      7 C         142.2859  141.8319  167.7698 C.ar    1  UNL1        0.0175
      8 C         141.9931  141.7163  169.2365 C.ar    1  UNL1        0.0271
      9 C         140.7833  140.9620  169.7027 C.ar    1  UNL1        0.1932
     10 F         140.4906  140.8465  171.1693 F       1  UNL1       -0.1994
     11 C         139.8662  140.3232  168.7023 C.ar    1  UNL1        0.2881
     12 O         138.6564  139.5689  169.1685 O.2     1  UNL1       -0.2645
     13 N         140.1589  140.4387  167.2357 N.ar    1  UNL1       -0.2958
     14 C         141.3688  141.1931  166.7694 C.ar    1  UNL1        0.0596
     15 N         143.1640  142.1784  163.3700 N.pl3   1  UNL1       -0.3046
     16 C         143.9971  141.2299  162.5598 C.3     1  UNL1        0.0922
     17 C         144.0230  141.7280  161.1452 C.3     1  UNL1        0.0357
     18 C         143.8681  142.4562  159.8430 C.3     1  UNL1        0.0190
     19 C         143.2060  142.9843  161.0811 C.3     1  UNL1        0.0590
     20 N         142.5787  144.1791  160.4260 N.3     1  UNL1       -0.3218
     21 C         142.6751  143.2627  162.4561 C.3     1  UNL1        0.1049
     22 H         142.0520  144.7098  161.1197 H       1  UNL1        0.1188
     23 H         141.9495  143.8694  159.6853 H       1  UNL1        0.1188
     24 C         142.9102  142.3552  170.2369 C.3     1  UNL1        0.0947
     25 N         142.6445  143.7526  170.7127 N.3     1  UNL1       -0.3174
     26 H         142.7590  144.4038  169.9360 H       1  UNL1        0.1192
     27 H         143.3024  143.9899  171.4552 H       1  UNL1        0.1192
     28 C         139.2418  139.7999  166.2352 C.3     1  UNL1        0.0886
     29 C         138.1117  139.9075  165.2548 C.3     1  UNL1        0.0246
     30 C         138.7835  138.5859  165.4829 C.3     1  UNL1        0.0246
@<TRIPOS>BOND
     1     1     2    1
     2     2     3   ar
     3     3    15    1
     4    15    16    1
     5    16    17    1
     6    17    18    1
     7    18    19    1
     8    19    20    1
     9    19    21    1
    10     3     4   ar
    11     4     5    1
    12     4     6   ar
    13     6     7   ar
    14     7     8   ar
    15     8    24    1
    16    24    25    1
    17     8     9   ar
    18     9    10    1
    19     9    11   ar
    20    11    12    2
    21    11    13   ar
    22    13    28    1
    23    28    29    1
    24    29    30    1
    25    13    14   ar
    26    14     2   ar
    27    21    15    1
    28    14     7   ar
    29    19    17    1
    30    30    28    1
    31    20    22    1
    32    20    23    1
    33    25    26    1
    34    25    27    1
@<TRIPOS>MOLECULE
*****
 30 34 0 0 0
SMALL
GASTEIGER

@<TRIPOS>ATOM
      1 C         141.9225  140.9840  163.8849 C.3     1  UNL1        0.0339
      2 C         141.2393  141.8521  164.8997 C.ar    1  UNL1        0.0095
      3 C         140.4354  143.0371  164.4534 C.ar    1  UNL1        0.0730
      4 C         139.7522  143.9052  165.4682 C.ar    1  UNL1        0.1531
      5 F         138.9482  145.0903  165.0218 F       1  UNL1       -0.2029
      6 C         139.8730  143.5882  166.9293 C.ar    1  UNL1        0.0321
      7 C         140.6770  142.4031  167.3756 C.ar    1  UNL1        0.0175
      8 C         140.7979  142.0861  168.8368 C.ar    1  UNL1        0.0271
      9 C         141.6018  140.9011  169.2831 C.ar    1  UNL1        0.1932
     10 F         141.7227  140.5840  170.7443 F       1  UNL1       -0.1994
     11 C         142.2850  140.0330  168.2683 C.ar    1  UNL1        0.2881
     12 O         143.0890  138.8479  168.7147 O.2     1  UNL1       -0.2645
     13 N         142.1642  140.3500  166.8072 N.ar    1  UNL1       -0.2958
     14 C         141.3602  141.5351  166.3608 C.ar    1  UNL1        0.0596
     15 N         140.3145  143.3541  162.9922 N.pl3   1  UNL1       -0.3046
     16 C         139.3013  142.7806  162.0464 C.3     1  UNL1        0.0922
     17 C         139.5462  143.3723  160.6900 C.3     1  UNL1        0.0357
     18 C         140.0238  144.1165  159.4784 C.3     1  UNL1        0.0190
     19 C         140.7108  144.3116  160.7975 C.3     1  UNL1        0.0590
     20 N         141.7255  145.2986  160.3014 N.3     1  UNL1       -0.3218
     21 C         141.1856  144.3004  162.2203 C.3     1  UNL1        0.1049
     22 H         142.3300  145.5816  161.0727 H       1  UNL1        0.1188
     23 H         141.2477  146.1177  159.9257 H       1  UNL1        0.1188
     24 C         140.1147  142.9542  169.8515 C.3     1  UNL1        0.0947
     25 N         140.7413  144.2500  170.2736 N.3     1  UNL1       -0.3174
     26 H         141.6124  144.0608  170.7695 H       1  UNL1        0.1192
     27 H         140.1018  144.7523  170.8892 H       1  UNL1        0.1192
     28 C         142.8473  139.4819  165.7924 C.3     1  UNL1        0.0886
     29 C         142.8168  138.3164  164.8488 C.3     1  UNL1        0.0246
     30 C         144.0611  139.1440  164.9785 C.3     1  UNL1        0.0246
@<TRIPOS>BOND
     1     1     2    1
     2     2     3   ar
     3     3    15    1
     4    15    16    1
     5    16    17    1
     6    17    18    1
     7    18    19    1
     8    19    20    1
     9    19    21    1
    10     3     4   ar
    11     4     5    1
    12     4     6   ar
    13     6     7   ar
    14     7     8   ar
    15     8    24    1
    16    24    25    1
    17     8     9   ar
    18     9    10    1
    19     9    11   ar
    20    11    12    2
    21    11    13   ar
    22    13    28    1
    23    28    29    1
    24    29    30    1
    25    13    14   ar
    26    14     2   ar
    27    21    15    1
    28    14     7   ar
    29    19    17    1
    30    30    28    1
    31    20    22    1
    32    20    23    1
    33    25    26    1
    34    25    27    1
@<TRIPOS>MOLECULE
*****
 30 34 0 0 0
SMALL
GASTEIGER

@<TRIPOS>ATOM
      1 C         140.2612  142.8657  166.1818 C.3     1  UNL1        0.0339
      2 C         141.3469  142.5705  165.1897 C.ar    1  UNL1        0.0095
      3 C         142.4793  141.6615  165.5655 C.ar    1  UNL1        0.0730
      4 C         143.5650  141.3663  164.5734 C.ar    1  UNL1        0.1531
      5 F         144.6975  140.4573  164.9492 F       1  UNL1       -0.2029
      6 C         143.5182  141.9802  163.2056 C.ar    1  UNL1        0.0321
      7 C         142.3858  142.8892  162.8299 C.ar    1  UNL1        0.0175
      8 C         142.3390  143.5032  161.4620 C.ar    1  UNL1        0.0271
      9 C         141.2066  144.4122  161.0863 C.ar    1  UNL1        0.1932
     10 F         141.1598  145.0262  159.7184 F       1  UNL1       -0.1994
     11 C         140.1209  144.7074  162.0784 C.ar    1  UNL1        0.2881
     12 O         138.9884  145.6164  161.7026 O.2     1  UNL1       -0.2645
     13 N         140.1676  144.0935  163.4462 N.ar    1  UNL1       -0.2958
     14 C         141.3001  143.1844  163.8220 C.ar    1  UNL1        0.0596
     15 N         142.5261  141.0475  166.9333 N.pl3   1  UNL1       -0.3046
     16 C         142.0848  139.6596  167.2924 C.3     1  UNL1        0.0922
     17 C         142.3083  139.4680  168.7632 C.3     1  UNL1        0.0357
     18 C         142.6386  139.5710  170.2227 C.3     1  UNL1        0.0190
     19 C         142.8879  140.7376  169.3132 C.3     1  UNL1        0.0590
     20 N         143.4363  141.6476  170.3719 N.3     1  UNL1       -0.3218
     21 C         143.0224  141.7137  168.1823 C.3     1  UNL1        0.1049
     22 H         143.6843  142.5445  169.9542 H       1  UNL1        0.1188
     23 H         144.2665  141.2247  170.7871 H       1  UNL1        0.1188
     24 C         143.4247  143.2080  160.4700 C.3     1  UNL1        0.0947
     25 N         143.2809  142.0547  159.5218 N.3     1  UNL1       -0.3174
     26 H         143.2871  141.1802  160.0467 H       1  UNL1        0.1192
     27 H         144.0573  142.0596  158.8602 H       1  UNL1        0.1192
     28 C         139.0820  144.3886  164.4382 C.3     1  UNL1        0.0886
     29 C         138.6081  145.0954  165.6735 C.3     1  UNL1        0.0246
     30 C         137.6754  144.1930  164.9212 C.3     1  UNL1        0.0246
@<TRIPOS>BOND
     1     1     2    1
     2     2     3   ar
     3     3    15    1
     4    15    16    1
     5    16    17    1
     6    17    18    1
     7    18    19    1
     8    19    20    1
     9    19    21    1
    10     3     4   ar
    11     4     5    1
    12     4     6   ar
    13     6     7   ar
    14     7     8   ar
    15     8    24    1
    16    24    25    1
    17     8     9   ar
    18     9    10    1
    19     9    11   ar
    20    11    12    2
    21    11    13   ar
    22    13    28    1
    23    28    29    1
    24    29    30    1
    25    13    14   ar
    26    14     2   ar
    27    21    15    1
    28    14     7   ar
    29    19    17    1
    30    30    28    1
    31    20    22    1
    32    20    23    1
    33    25    26    1
    34    25    27    1
@<TRIPOS>MOLECULE
*****
 30 34 0 0 0
SMALL
GASTEIGER

@<TRIPOS>ATOM
      1 C         143.0362  140.7835  165.9398 C.3     1  UNL1        0.0339
      2 C         141.7050  140.1598  165.6415 C.ar    1  UNL1        0.0095
      3 C         140.6702  140.0482  166.7215 C.ar    1  UNL1        0.0730
      4 C         139.3390  139.4245  166.4232 C.ar    1  UNL1        0.1531
      5 F         138.3041  139.3129  167.5033 F       1  UNL1       -0.2029
      6 C         139.0427  138.9124  165.0448 C.ar    1  UNL1        0.0321
      7 C         140.0776  139.0241  163.9648 C.ar    1  UNL1        0.0175
      8 C         139.7814  138.5120  162.5863 C.ar    1  UNL1        0.0271
      9 C         140.8162  138.6236  161.5063 C.ar    1  UNL1        0.1932
     10 F         140.5200  138.1115  160.1278 F       1  UNL1       -0.1994
     11 C         142.1474  139.2473  161.8046 C.ar    1  UNL1        0.2881
     12 O         143.1823  139.3589  160.7245 O.2     1  UNL1       -0.2645
     13 N         142.4437  139.7594  163.1830 N.ar    1  UNL1       -0.2958
     14 C         141.4088  139.6478  164.2631 C.ar    1  UNL1        0.0596
     15 N         140.9664  140.5603  168.1000 N.pl3   1  UNL1       -0.3046
     16 C         140.3919  141.7979  168.7231 C.3     1  UNL1        0.0922
     17 C         140.9596  141.9272  170.1055 C.3     1  UNL1        0.0357
     18 C         141.6788  141.7918  171.4149 C.3     1  UNL1        0.0190
     19 C         141.8849  140.7694  170.3368 C.3     1  UNL1        0.0590
     20 N         142.8507  139.9201  171.1086 N.3     1  UNL1       -0.3218
     21 C         141.8891  139.9247  169.0973 C.3     1  UNL1        0.1049
     22 H         143.1374  139.1257  170.5365 H       1  UNL1        0.1188
     23 H         142.4012  139.5817  171.9594 H       1  UNL1        0.1188
     24 C         138.4502  137.8883  162.2880 C.3     1  UNL1        0.0947
     25 N         137.3684  138.7023  161.6422 N.3     1  UNL1       -0.3174
     26 H         137.0717  139.4407  162.2803 H       1  UNL1        0.1192
     27 H         136.5737  138.1007  161.4254 H       1  UNL1        0.1192
     28 C         143.7748  140.3831  163.4814 C.3     1  UNL1        0.0886
     29 C         144.6736  141.5839  163.4919 C.3     1  UNL1        0.0246
     30 C         145.1817  140.2625  163.9875 C.3     1  UNL1        0.0246
@<TRIPOS>BOND
     1     1     2    1
     2     2     3   ar
     3     3    15    1
     4    15    16    1
     5    16    17    1
     6    17    18    1
     7    18    19    1
     8    19    20    1
     9    19    21    1
    10     3     4   ar
    11     4     5    1
    12     4     6   ar
    13     6     7   ar
    14     7     8   ar
    15     8    24    1
    16    24    25    1
    17     8     9   ar
    18     9    10    1
    19     9    11   ar
    20    11    12    2
    21    11    13   ar
    22    13    28    1
    23    28    29    1
    24    29    30    1
    25    13    14   ar
    26    14     2   ar
    27    21    15    1
    28    14     7   ar
    29    19    17    1
    30    30    28    1
    31    20    22    1
    32    20    23    1
    33    25    26    1
    34    25    27    1
@<TRIPOS>MOLECULE
*****
 30 34 0 0 0
SMALL
GASTEIGER

@<TRIPOS>ATOM
      1 C         139.8905  142.4124  165.9890 C.3     1  UNL1        0.0339
      2 C         140.1795  141.1827  165.1800 C.ar    1  UNL1        0.0095
      3 C         140.9428  140.0452  165.7910 C.ar    1  UNL1        0.0730
      4 C         141.2318  138.8156  164.9820 C.ar    1  UNL1        0.1531
      5 F         141.9952  137.6781  165.5930 F       1  UNL1       -0.2029
      6 C         140.7574  138.7235  163.5620 C.ar    1  UNL1        0.0321
      7 C         139.9941  139.8610  162.9510 C.ar    1  UNL1        0.0175
      8 C         139.5197  139.7689  161.5309 C.ar    1  UNL1        0.0271
      9 C         138.7564  140.9064  160.9199 C.ar    1  UNL1        0.1932
     10 F         138.2819  140.8143  159.4999 F       1  UNL1       -0.1994
     11 C         138.4674  142.1360  161.7290 C.ar    1  UNL1        0.2881
     12 O         137.7040  143.2736  161.1179 O.2     1  UNL1       -0.2645
     13 N         138.9417  142.2282  163.1490 N.ar    1  UNL1       -0.2958
     14 C         139.7051  141.0906  163.7600 C.ar    1  UNL1        0.0596
     15 N         141.4172  140.1373  167.2111 N.pl3   1  UNL1       -0.3046
     16 C         142.7631  140.6232  167.6613 C.3     1  UNL1        0.0922
     17 C         142.8067  140.5459  169.1586 C.3     1  UNL1        0.0357
     18 C         142.5582  140.3588  170.6260 C.3     1  UNL1        0.0190
     19 C         141.4878  140.0122  169.6338 C.3     1  UNL1        0.0590
     20 N         140.4759  139.5621  170.6455 N.3     1  UNL1       -0.3218
     21 C         140.6291  139.7597  168.4302 C.3     1  UNL1        0.1049
     22 H         139.6248  139.2670  170.1671 H       1  UNL1        0.1188
     23 H         140.2608  140.3333  171.2775 H       1  UNL1        0.1188
     24 C         139.8087  138.5393  160.7219 C.3     1  UNL1        0.0947
     25 N         140.9691  138.5224  159.7716 N.3     1  UNL1       -0.3174
     26 H         140.8002  139.1874  159.0169 H       1  UNL1        0.1192
     27 H         141.0758  137.5858  159.3819 H       1  UNL1        0.1192
     28 C         138.6527  143.4578  163.9580 C.3     1  UNL1        0.0886
     29 C         139.0813  144.7932  164.4899 C.3     1  UNL1        0.0246
     30 C         137.7236  144.2521  164.8273 C.3     1  UNL1        0.0246
@<TRIPOS>BOND
     1     1     2    1
     2     2     3   ar
     3     3    15    1
     4    15    16    1
     5    16    17    1
     6    17    18    1
     7    18    19    1
     8    19    20    1
     9    19    21    1
    10     3     4   ar
    11     4     5    1
    12     4     6   ar
    13     6     7   ar
    14     7     8   ar
    15     8    24    1
    16    24    25    1
    17     8     9   ar
    18     9    10    1
    19     9    11   ar
    20    11    12    2
    21    11    13   ar
    22    13    28    1
    23    28    29    1
    24    29    30    1
    25    13    14   ar
    26    14     2   ar
    27    21    15    1
    28    14     7   ar
    29    19    17    1
    30    30    28    1
    31    20    22    1
    32    20    23    1
    33    25    26    1
    34    25    27    1
@<TRIPOS>MOLECULE
*****
 30 34 0 0 0
SMALL
GASTEIGER

@<TRIPOS>ATOM
      1 C         142.8868  141.9522  166.7963 C.3     1  UNL1        0.0339
      2 C         141.7294  141.1453  166.2868 C.ar    1  UNL1        0.0095
      3 C         141.6306  140.8145  164.8272 C.ar    1  UNL1        0.0730
      4 C         140.4732  140.0076  164.3177 C.ar    1  UNL1        0.1531
      5 F         140.3744  139.6768  162.8579 F       1  UNL1       -0.2029
      6 C         139.4148  139.5315  165.2680 C.ar    1  UNL1        0.0321
      7 C         139.5137  139.8623  166.7277 C.ar    1  UNL1        0.0175
      8 C         138.4553  139.3862  167.6780 C.ar    1  UNL1        0.0271
      9 C         138.5541  139.7170  169.1377 C.ar    1  UNL1        0.1932
     10 F         137.4957  139.2409  170.0880 F       1  UNL1       -0.1994
     11 C         139.7115  140.5239  169.6471 C.ar    1  UNL1        0.2881
     12 O         139.8103  140.8547  171.1069 O.2     1  UNL1       -0.2645
     13 N         140.7699  141.0000  168.6969 N.ar    1  UNL1       -0.2958
     14 C         140.6710  140.6692  167.2371 C.ar    1  UNL1        0.0596
     15 N         142.6890  141.2906  163.8768 N.pl3   1  UNL1       -0.3046
     16 C         143.9089  140.5238  163.4597 C.3     1  UNL1        0.0922
     17 C         144.6872  141.3763  162.5019 C.3     1  UNL1        0.0357
     18 C         145.2344  142.4354  161.5915 C.3     1  UNL1        0.0190
     19 C         143.9483  142.6700  162.3270 C.3     1  UNL1        0.0590
     20 N         143.7038  144.0454  161.7808 N.3     1  UNL1       -0.3218
     21 C         142.7134  142.6170  163.1768 C.3     1  UNL1        0.1049
     22 H         142.8358  144.4157  162.1679 H       1  UNL1        0.1188
     23 H         143.6305  143.9995  160.7644 H       1  UNL1        0.1188
     24 C         137.2979  138.5793  167.1686 C.3     1  UNL1        0.0947
     25 N         137.2284  137.1075  167.4494 N.3     1  UNL1       -0.3174
     26 H         137.9923  136.6330  166.9681 H       1  UNL1        0.1192
     27 H         136.3368  136.7397  167.1174 H       1  UNL1        0.1192
     28 C         141.9272  141.8069  169.2063 C.3     1  UNL1        0.0886
     29 C         143.3957  141.9425  169.4802 C.3     1  UNL1        0.0246
     30 C         142.4632  143.0688  169.8147 C.3     1  UNL1        0.0246
@<TRIPOS>BOND
     1     1     2    1
     2     2     3   ar
     3     3    15    1
     4    15    16    1
     5    16    17    1
     6    17    18    1
     7    18    19    1
     8    19    20    1
     9    19    21    1
    10     3     4   ar
    11     4     5    1
    12     4     6   ar
    13     6     7   ar
    14     7     8   ar
    15     8    24    1
    16    24    25    1
    17     8     9   ar
    18     9    10    1
    19     9    11   ar
    20    11    12    2
    21    11    13   ar
    22    13    28    1
    23    28    29    1
    24    29    30    1
    25    13    14   ar
    26    14     2   ar
    27    21    15    1
    28    14     7   ar
    29    19    17    1
    30    30    28    1
    31    20    22    1
    32    20    23    1
    33    25    26    1
    34    25    27    1
