@<TRIPOS>MOLECULE
*****
 38 41 0 0 0
SMALL
GASTEIGER

@<TRIPOS>ATOM
      1 C         138.3280  140.6990  159.4342 C.ar    1  UNL1        0.0840
      2 N         137.4385  140.0760  158.3995 N.ar    1  UNL1       -0.2119
      3 C         137.0056  140.8727  157.2046 C.ar    1  UNL1        0.2219
      4 C         137.4623  142.2925  157.0444 C.ar    1  UNL1        0.0488
      5 C         138.3518  142.9155  158.0791 C.ar    1  UNL1        0.0034
      6 C         138.7846  142.1188  159.2740 C.ar    1  UNL1        0.0176
      7 C         137.0294  143.0893  155.8495 C.3     1  UNL1        0.1021
      8 C         136.1399  142.4663  154.8148 C.3     1  UNL1        0.0643
      9 C         135.6832  141.0465  154.9750 C.3     1  UNL1        0.1368
     10 C         134.9930  139.7467  154.6853 C.3     1  UNL1        0.0437
     11 C         135.0107  141.3919  153.6795 C.3     1  UNL1        0.0437
     12 O         136.1161  140.2497  156.1699 O.3     1  UNL1       -0.4676
     13 C         140.8011  139.0068  159.2928 C.3     1  UNL1        0.0311
     14 C         139.9974  139.0561  160.5584 C.ar    1  UNL1       -0.0196
     15 C         140.4304  138.2593  161.7533 C.ar    1  UNL1        0.0072
     16 C         139.6267  138.3086  163.0189 C.ar    1  UNL1        0.0574
     17 CL        140.0596  137.5119  164.2137 Cl      1  UNL1       -0.0823
     18 C         138.3901  139.1547  163.0896 C.ar    1  UNL1        0.0114
     19 C         137.9572  139.9515  161.8946 C.ar    1  UNL1        0.0020
     20 C         138.7609  139.9022  160.6291 C.ar    1  UNL1        0.0139
     21 C         139.6742  142.7418  160.3087 C.ar    1  UNL1        0.0015
     22 C         141.1647  142.6771  160.1535 C.ar    1  UNL1        0.0009
     23 C         142.0542  143.3000  161.1882 C.ar    1  UNL1        0.0114
     24 C         141.4532  143.9877  162.3782 C.ar    1  UNL1        0.0577
     25 CL        142.3428  144.6107  163.4129 Cl      1  UNL1       -0.0822
     26 C         139.9627  144.0524  162.5334 C.ar    1  UNL1        0.0114
     27 C         139.0731  143.4294  161.4986 C.ar    1  UNL1        0.0009
     28 N         137.4860  144.5091  155.6893 N.am    1  UNL1       -0.2997
     29 C         138.8436  144.8009  155.1221 C.2     1  UNL1        0.2584
     30 O         139.7446  143.6728  154.7150 O.2     1  UNL1       -0.2722
     31 H         136.8947  145.2495  155.9565 H       1  UNL1        0.1498
     32 C         139.3002  146.2207  154.9619 C.3     1  UNL1        0.2830
     33 O         139.9818  146.6511  153.6969 O.3     1  UNL1       -0.3697
     34 H         140.2103  147.5919  153.7568 H       1  UNL1        0.2112
     35 C         139.0753  147.2100  156.0668 C.3     1  UNL1        0.4305
     36 F         138.8504  148.1993  157.1716 F       1  UNL1       -0.1670
     37 F         138.4547  148.1621  155.0878 F       1  UNL1       -0.1670
     38 F         139.6960  146.2579  157.0457 F       1  UNL1       -0.1670
@<TRIPOS>BOND
     1    13    14    1
     2    14    15   ar
     3    15    16   ar
     4    16    17    1
     5    16    18   ar
     6    18    19   ar
     7    19    20   ar
     8    20     1    1
     9     1     2   ar
    10     2     3   ar
    11     3     4   ar
    12     4     5   ar
    13     5     6   ar
    14     6    21    1
    15    21    22   ar
    16    22    23   ar
    17    23    24   ar
    18    24    25    1
    19    24    26   ar
    20    26    27   ar
    21     4     7    1
    22     7    28    1
    23    28    29   am
    24    29    30    2
    25    29    32    1
    26    32    33    1
    27    32    35    1
    28    35    36    1
    29    35    37    1
    30    35    38    1
    31     7     8    1
    32     8     9    1
    33     9    10    1
    34     9    11    1
    35     9    12    1
    36    20    14   ar
    37     6     1   ar
    38    27    21   ar
    39    12     3    1
    40    28    31    1
    41    33    34    1
@<TRIPOS>MOLECULE
*****
 38 41 0 0 0
SMALL
GASTEIGER

@<TRIPOS>ATOM
      1 C         140.8419  139.2257  161.4364 C.ar    1  UNL1        0.0840
      2 N         140.3339  138.4844  160.2354 N.ar    1  UNL1       -0.2119
      3 C         141.1250  138.4894  158.9611 C.ar    1  UNL1        0.2219
      4 C         142.4242  139.2356  158.8877 C.ar    1  UNL1        0.0488
      5 C         142.9322  139.9769  160.0886 C.ar    1  UNL1        0.0034
      6 C         142.1410  139.9720  161.3630 C.ar    1  UNL1        0.0176
      7 C         143.2153  139.2406  157.6132 C.3     1  UNL1        0.1021
      8 C         142.7073  138.4993  156.4123 C.3     1  UNL1        0.0643
      9 C         141.4082  137.7530  156.4856 C.3     1  UNL1        0.1368
     10 C         140.2433  136.9064  156.0658 C.3     1  UNL1        0.0437
     11 C         141.7948  137.4639  155.0655 C.3     1  UNL1        0.0437
     12 O         140.6171  137.7481  157.7600 O.3     1  UNL1       -0.4676
     13 C         141.2776  137.0579  163.4639 C.3     1  UNL1        0.0311
     14 C         140.2686  138.1369  163.7246 C.ar    1  UNL1       -0.0196
     15 C         139.4775  138.1319  164.9990 C.ar    1  UNL1        0.0072
     16 C         138.4686  139.2109  165.2597 C.ar    1  UNL1        0.0574
     17 CL        137.6775  139.2060  166.5341 Cl      1  UNL1       -0.0823
     18 C         138.2507  140.2948  164.2459 C.ar    1  UNL1        0.0114
     19 C         139.0419  140.2997  162.9715 C.ar    1  UNL1        0.0020
     20 C         140.0508  139.2208  162.7108 C.ar    1  UNL1        0.0139
     21 C         142.6490  140.7133  162.5641 C.ar    1  UNL1        0.0015
     22 C         142.2078  142.1246  162.8162 C.ar    1  UNL1        0.0009
     23 C         142.7158  142.8659  164.0172 C.ar    1  UNL1        0.0114
     24 C         143.6649  142.1960  164.9661 C.ar    1  UNL1        0.0577
     25 CL        144.1729  142.9373  166.1671 Cl      1  UNL1       -0.0822
     26 C         144.1061  140.7846  164.7139 C.ar    1  UNL1        0.0114
     27 C         143.5981  140.0433  163.5129 C.ar    1  UNL1        0.0009
     28 N         144.5144  139.9868  157.5398 N.am    1  UNL1       -0.2997
     29 C         144.5608  141.3528  156.9220 C.2     1  UNL1        0.2584
     30 O         143.3080  141.9727  156.3775 O.2     1  UNL1       -0.2722
     31 H         145.3367  139.5800  157.8972 H       1  UNL1        0.1498
     32 C         145.8599  142.0991  156.8486 C.3     1  UNL1        0.2830
     33 O         146.1631  143.1770  157.8467 O.3     1  UNL1       -0.3697
     34 H         147.0364  143.5552  157.6588 H       1  UNL1        0.2112
     35 C         146.8559  141.7674  155.7770 C.3     1  UNL1        0.4305
     36 F         147.8518  141.4357  154.7055 F       1  UNL1       -0.1670
     37 F         145.7459  141.2697  154.8995 F       1  UNL1       -0.1670
     38 F         147.9659  142.2651  156.6546 F       1  UNL1       -0.1670
@<TRIPOS>BOND
     1    13    14    1
     2    14    15   ar
     3    15    16   ar
     4    16    17    1
     5    16    18   ar
     6    18    19   ar
     7    19    20   ar
     8    20     1    1
     9     1     2   ar
    10     2     3   ar
    11     3     4   ar
    12     4     5   ar
    13     5     6   ar
    14     6    21    1
    15    21    22   ar
    16    22    23   ar
    17    23    24   ar
    18    24    25    1
    19    24    26   ar
    20    26    27   ar
    21     4     7    1
    22     7    28    1
    23    28    29   am
    24    29    30    2
    25    29    32    1
    26    32    33    1
    27    32    35    1
    28    35    36    1
    29    35    37    1
    30    35    38    1
    31     7     8    1
    32     8     9    1
    33     9    10    1
    34     9    11    1
    35     9    12    1
    36    20    14   ar
    37     6     1   ar
    38    27    21   ar
    39    12     3    1
    40    28    31    1
    41    33    34    1
@<TRIPOS>MOLECULE
*****
 38 41 0 0 0
SMALL
GASTEIGER

@<TRIPOS>ATOM
      1 C         138.9889  140.2612  159.8327 C.ar    1  UNL1        0.0840
      2 N         138.2447  140.4643  158.5463 N.ar    1  UNL1       -0.2119
      3 C         138.5587  139.6086  157.3551 C.ar    1  UNL1        0.2219
      4 C         139.6168  138.5497  157.4503 C.ar    1  UNL1        0.0488
      5 C         140.3610  138.3465  158.7367 C.ar    1  UNL1        0.0034
      6 C         140.0470  139.2023  159.9279 C.ar    1  UNL1        0.0176
      7 C         139.9308  137.6939  156.2590 C.3     1  UNL1        0.1021
      8 C         139.1867  137.8971  154.9726 C.3     1  UNL1        0.0643
      9 C         138.1285  138.9560  154.8774 C.3     1  UNL1        0.1368
     10 C         137.0493  139.8221  154.2987 C.3     1  UNL1        0.0437
     11 C         138.0677  138.4010  153.4851 C.3     1  UNL1        0.0437
     12 O         137.8145  139.8117  156.0686 O.3     1  UNL1       -0.4676
     13 C         140.3415  142.9177  160.1696 C.3     1  UNL1        0.0311
     14 C         139.3512  142.4452  161.1925 C.ar    1  UNL1       -0.0196
     15 C         139.0372  143.3010  162.3837 C.ar    1  UNL1        0.0072
     16 C         138.0470  142.8285  163.4066 C.ar    1  UNL1        0.0574
     17 CL        137.7330  143.6842  164.5978 Cl      1  UNL1       -0.0823
     18 C         137.3707  141.5002  163.2382 C.ar    1  UNL1        0.0114
     19 C         137.6846  140.6445  162.0468 C.ar    1  UNL1        0.0020
     20 C         138.6749  141.1170  161.0241 C.ar    1  UNL1        0.0139
     21 C         140.7912  138.9992  161.2144 C.ar    1  UNL1        0.0015
     22 C         141.9907  139.8433  161.5283 C.ar    1  UNL1        0.0009
     23 C         142.7349  139.6402  162.8148 C.ar    1  UNL1        0.0114
     24 C         142.2795  138.5930  163.7874 C.ar    1  UNL1        0.0577
     25 CL        143.0236  138.3899  165.0738 Cl      1  UNL1       -0.0822
     26 C         141.0799  137.7488  163.4735 C.ar    1  UNL1        0.0114
     27 C         140.3358  137.9519  162.1870 C.ar    1  UNL1        0.0009
     28 N         140.9890  136.6350  156.3542 N.am    1  UNL1       -0.2997
     29 C         142.3903  136.9330  155.9099 C.2     1  UNL1        0.2584
     30 O         142.7336  138.2899  155.3704 O.2     1  UNL1       -0.2722
     31 H         140.7637  135.7445  156.7082 H       1  UNL1        0.1498
     32 C         143.4484  135.8741  156.0051 C.3     1  UNL1        0.2830
     33 O         144.7843  136.0884  155.3575 O.3     1  UNL1       -0.3697
     34 H         145.3470  135.3137  155.5129 H       1  UNL1        0.2112
     35 C         143.1707  134.6009  156.7480 C.3     1  UNL1        0.4305
     36 F         142.8929  133.3277  157.4908 F       1  UNL1       -0.1670
     37 F         143.0556  133.8660  155.4455 F       1  UNL1       -0.1670
     38 F         143.2857  135.3357  158.0506 F       1  UNL1       -0.1670
@<TRIPOS>BOND
     1    13    14    1
     2    14    15   ar
     3    15    16   ar
     4    16    17    1
     5    16    18   ar
     6    18    19   ar
     7    19    20   ar
     8    20     1    1
     9     1     2   ar
    10     2     3   ar
    11     3     4   ar
    12     4     5   ar
    13     5     6   ar
    14     6    21    1
    15    21    22   ar
    16    22    23   ar
    17    23    24   ar
    18    24    25    1
    19    24    26   ar
    20    26    27   ar
    21     4     7    1
    22     7    28    1
    23    28    29   am
    24    29    30    2
    25    29    32    1
    26    32    33    1
    27    32    35    1
    28    35    36    1
    29    35    37    1
    30    35    38    1
    31     7     8    1
    32     8     9    1
    33     9    10    1
    34     9    11    1
    35     9    12    1
    36    20    14   ar
    37     6     1   ar
    38    27    21   ar
    39    12     3    1
    40    28    31    1
    41    33    34    1
@<TRIPOS>MOLECULE
*****
 38 41 0 0 0
SMALL
GASTEIGER

@<TRIPOS>ATOM
      1 C         139.5590  143.1025  160.6136 C.ar    1  UNL1        0.0840
      2 N         139.5619  144.0334  159.4374 N.ar    1  UNL1       -0.2119
      3 C         139.8378  143.5029  158.0618 C.ar    1  UNL1        0.2219
      4 C         140.1109  142.0415  157.8623 C.ar    1  UNL1        0.0488
      5 C         140.1080  141.1106  159.0385 C.ar    1  UNL1        0.0034
      6 C         139.8320  141.6411  160.4141 C.ar    1  UNL1        0.0176
      7 C         140.3868  141.5110  156.4866 C.3     1  UNL1        0.1021
      8 C         140.3897  142.4419  155.3104 C.3     1  UNL1        0.0643
      9 C         140.1167  143.9033  155.5099 C.3     1  UNL1        0.1368
     10 C         139.9151  145.3556  155.1935 C.3     1  UNL1        0.0437
     11 C         140.3226  143.8772  154.0244 C.3     1  UNL1        0.0437
     12 O         139.8407  144.4338  156.8855 O.3     1  UNL1       -0.4676
     13 C         141.7797  144.3108  162.2286 C.3     1  UNL1        0.0311
     14 C         140.3934  144.2371  162.7968 C.ar    1  UNL1       -0.0196
     15 C         140.1175  144.7676  164.1724 C.ar    1  UNL1        0.0072
     16 C         138.7312  144.6939  164.7406 C.ar    1  UNL1        0.0574
     17 CL        138.4553  145.2243  166.1163 Cl      1  UNL1       -0.0823
     18 C         137.6208  144.0897  163.9331 C.ar    1  UNL1        0.0114
     19 C         137.8968  143.5593  162.5574 C.ar    1  UNL1        0.0020
     20 C         139.2830  143.6329  161.9893 C.ar    1  UNL1        0.0139
     21 C         139.8291  140.7102  161.5903 C.ar    1  UNL1        0.0015
     22 C         141.0721  140.5355  162.4116 C.ar    1  UNL1        0.0009
     23 C         141.0693  139.6047  163.5878 C.ar    1  UNL1        0.0114
     24 C         139.8234  138.8484  163.9428 C.ar    1  UNL1        0.0577
     25 CL        139.8205  137.9176  165.1190 Cl      1  UNL1       -0.0822
     26 C         138.5804  139.0231  163.1215 C.ar    1  UNL1        0.0114
     27 C         138.5833  139.9540  161.9453 C.ar    1  UNL1        0.0009
     28 N         140.6599  140.0496  156.2871 N.am    1  UNL1       -0.2997
     29 C         139.5206  139.0765  156.2169 C.2     1  UNL1        0.2584
     30 O         138.1081  139.5648  156.3461 O.2     1  UNL1       -0.2722
     31 H         141.5869  139.7292  156.2023 H       1  UNL1        0.1498
     32 C         139.7936  137.6151  156.0174 C.3     1  UNL1        0.2830
     33 O         138.6660  136.6274  156.0700 O.3     1  UNL1       -0.3697
     34 H         139.0121  135.7334  155.9224 H       1  UNL1        0.2112
     35 C         141.1945  137.1415  155.7653 C.3     1  UNL1        0.4305
     36 F         142.5952  136.6678  155.5132 F       1  UNL1       -0.1670
     37 F         140.9582  137.2299  154.2867 F       1  UNL1       -0.1670
     38 F         141.4307  137.0530  157.2439 F       1  UNL1       -0.1670
@<TRIPOS>BOND
     1    13    14    1
     2    14    15   ar
     3    15    16   ar
     4    16    17    1
     5    16    18   ar
     6    18    19   ar
     7    19    20   ar
     8    20     1    1
     9     1     2   ar
    10     2     3   ar
    11     3     4   ar
    12     4     5   ar
    13     5     6   ar
    14     6    21    1
    15    21    22   ar
    16    22    23   ar
    17    23    24   ar
    18    24    25    1
    19    24    26   ar
    20    26    27   ar
    21     4     7    1
    22     7    28    1
    23    28    29   am
    24    29    30    2
    25    29    32    1
    26    32    33    1
    27    32    35    1
    28    35    36    1
    29    35    37    1
    30    35    38    1
    31     7     8    1
    32     8     9    1
    33     9    10    1
    34     9    11    1
    35     9    12    1
    36    20    14   ar
    37     6     1   ar
    38    27    21   ar
    39    12     3    1
    40    28    31    1
    41    33    34    1
@<TRIPOS>MOLECULE
*****
 38 41 0 0 0
SMALL
GASTEIGER

@<TRIPOS>ATOM
      1 C         141.0534  144.2094  158.5066 C.ar    1  UNL1        0.0840
      2 N         141.9013  144.7438  159.6226 N.ar    1  UNL1       -0.2119
      3 C         142.0042  143.9883  160.9143 C.ar    1  UNL1        0.2219
      4 C         141.2591  142.6983  161.0900 C.ar    1  UNL1        0.0488
      5 C         140.4112  142.1639  159.9740 C.ar    1  UNL1        0.0034
      6 C         140.3084  142.9195  158.6823 C.ar    1  UNL1        0.0176
      7 C         141.3620  141.9427  162.3817 C.3     1  UNL1        0.1021
      8 C         142.2099  142.4771  163.4977 C.3     1  UNL1        0.0643
      9 C         142.9550  143.7671  163.3220 C.3     1  UNL1        0.1368
     10 C         143.8428  144.9356  163.6323 C.3     1  UNL1        0.0437
     11 C         143.3662  143.4173  164.7215 C.3     1  UNL1        0.0437
     12 O         142.8521  144.5227  162.0303 O.3     1  UNL1       -0.4676
     13 C         142.9167  143.5719  156.2435 C.3     1  UNL1        0.0311
     14 C         141.8822  144.6462  156.0833 C.ar    1  UNL1       -0.0196
     15 C         141.7793  145.4017  154.7916 C.ar    1  UNL1        0.0072
     16 C         140.7448  146.4761  154.6313 C.ar    1  UNL1        0.0574
     17 CL        140.6420  147.2316  153.3396 Cl      1  UNL1       -0.0823
     18 C         139.8132  146.7949  155.7629 C.ar    1  UNL1        0.0114
     19 C         139.9161  146.0393  157.0547 C.ar    1  UNL1        0.0020
     20 C         140.9505  144.9650  157.2148 C.ar    1  UNL1        0.0139
     21 C         139.4604  142.3851  157.5663 C.ar    1  UNL1        0.0015
     22 C         140.0521  141.4435  156.5596 C.ar    1  UNL1        0.0009
     23 C         139.2042  140.9091  155.4436 C.ar    1  UNL1        0.0114
     24 C         137.7647  141.3163  155.3342 C.ar    1  UNL1        0.0577
     25 CL        136.9168  140.7819  154.2182 Cl      1  UNL1       -0.0822
     26 C         137.1730  142.2578  156.3409 C.ar    1  UNL1        0.0114
     27 C         138.0209  142.7922  157.4569 C.ar    1  UNL1        0.0009
     28 N         140.6170  140.6527  162.5575 N.am    1  UNL1       -0.2997
     29 C         141.2614  139.3554  162.1682 C.2     1  UNL1        0.2584
     30 O         142.6510  139.3480  161.6033 O.2     1  UNL1       -0.2722
     31 H         139.7050  140.6576  162.9282 H       1  UNL1        0.1498
     32 C         140.5163  138.0654  162.3439 C.3     1  UNL1        0.2830
     33 O         141.2467  136.8315  162.7842 O.3     1  UNL1       -0.3697
     34 H         140.6225  136.0917  162.8478 H       1  UNL1        0.2112
     35 C         139.0409  138.0095  162.0794 C.3     1  UNL1        0.4305
     36 F         137.5655  137.9535  161.8149 F       1  UNL1       -0.1670
     37 F         138.7770  137.9884  163.5558 F       1  UNL1       -0.1670
     38 F         139.3048  138.0306  160.6030 F       1  UNL1       -0.1670
@<TRIPOS>BOND
     1    13    14    1
     2    14    15   ar
     3    15    16   ar
     4    16    17    1
     5    16    18   ar
     6    18    19   ar
     7    19    20   ar
     8    20     1    1
     9     1     2   ar
    10     2     3   ar
    11     3     4   ar
    12     4     5   ar
    13     5     6   ar
    14     6    21    1
    15    21    22   ar
    16    22    23   ar
    17    23    24   ar
    18    24    25    1
    19    24    26   ar
    20    26    27   ar
    21     4     7    1
    22     7    28    1
    23    28    29   am
    24    29    30    2
    25    29    32    1
    26    32    33    1
    27    32    35    1
    28    35    36    1
    29    35    37    1
    30    35    38    1
    31     7     8    1
    32     8     9    1
    33     9    10    1
    34     9    11    1
    35     9    12    1
    36    20    14   ar
    37     6     1   ar
    38    27    21   ar
    39    12     3    1
    40    28    31    1
    41    33    34    1
@<TRIPOS>MOLECULE
*****
 38 41 0 0 0
SMALL
GASTEIGER

@<TRIPOS>ATOM
      1 C         138.6710  142.1723  160.6438 C.ar    1  UNL1        0.0840
      2 N         138.0624  142.8180  159.4345 N.ar    1  UNL1       -0.2119
      3 C         138.0449  142.0889  158.1238 C.ar    1  UNL1        0.2219
      4 C         138.6362  140.7141  158.0223 C.ar    1  UNL1        0.0488
      5 C         139.2449  140.0683  159.2317 C.ar    1  UNL1        0.0034
      6 C         139.2623  140.7974  160.5424 C.ar    1  UNL1        0.0176
      7 C         138.6187  139.9850  156.7115 C.3     1  UNL1        0.1021
      8 C         138.0101  140.6308  155.5022 C.3     1  UNL1        0.0643
      9 C         137.4188  142.0056  155.6036 C.3     1  UNL1        0.1368
     10 C         136.7396  143.2810  155.2013 C.3     1  UNL1        0.0437
     11 C         137.1655  141.7194  154.1531 C.3     1  UNL1        0.0437
     12 O         137.4363  142.7347  156.9144 O.3     1  UNL1       -0.4676
     13 C         140.8613  144.1337  161.2402 C.3     1  UNL1        0.0311
     14 C         139.7836  143.8821  162.2528 C.ar    1  UNL1       -0.0196
     15 C         139.8011  144.6111  163.5636 C.ar    1  UNL1        0.0072
     16 C         138.7234  144.3595  164.5762 C.ar    1  UNL1        0.0574
     17 CL        138.7409  145.0886  165.8870 Cl      1  UNL1       -0.0823
     18 C         137.6283  143.3788  164.2781 C.ar    1  UNL1        0.0114
     19 C         137.6109  142.6497  162.9672 C.ar    1  UNL1        0.0020
     20 C         138.6885  142.9013  161.9547 C.ar    1  UNL1        0.0139
     21 C         139.8710  140.1517  161.7518 C.ar    1  UNL1        0.0015
     22 C         141.3086  140.4074  162.0950 C.ar    1  UNL1        0.0009
     23 C         141.9173  139.7618  163.3043 C.ar    1  UNL1        0.0114
     24 C         141.0884  138.8603  164.1706 C.ar    1  UNL1        0.0577
     25 CL        141.6971  138.2146  165.3799 Cl      1  UNL1       -0.0822
     26 C         139.6507  138.6045  163.8273 C.ar    1  UNL1        0.0114
     27 C         139.0420  139.2503  162.6179 C.ar    1  UNL1        0.0009
     28 N         139.2100  138.6102  156.6101 N.am    1  UNL1       -0.2997
     29 C         140.5897  138.4265  156.0511 C.2     1  UNL1        0.2584
     30 O         141.3783  139.6177  155.5936 O.2     1  UNL1       -0.2722
     31 H         138.6924  137.8284  156.9104 H       1  UNL1        0.1498
     32 C         141.1810  137.0517  155.9497 C.3     1  UNL1        0.2830
     33 O         140.2848  135.8601  155.7859 O.3     1  UNL1       -0.3697
     34 H         140.8233  135.0548  155.7368 H       1  UNL1        0.2112
     35 C         142.6685  136.8685  156.0122 C.3     1  UNL1        0.4305
     36 F         144.1559  136.6853  156.0747 F       1  UNL1       -0.1670
     37 F         142.6577  137.2735  157.4564 F       1  UNL1       -0.1670
     38 F         142.6793  136.4634  154.5680 F       1  UNL1       -0.1670
@<TRIPOS>BOND
     1    13    14    1
     2    14    15   ar
     3    15    16   ar
     4    16    17    1
     5    16    18   ar
     6    18    19   ar
     7    19    20   ar
     8    20     1    1
     9     1     2   ar
    10     2     3   ar
    11     3     4   ar
    12     4     5   ar
    13     5     6   ar
    14     6    21    1
    15    21    22   ar
    16    22    23   ar
    17    23    24   ar
    18    24    25    1
    19    24    26   ar
    20    26    27   ar
    21     4     7    1
    22     7    28    1
    23    28    29   am
    24    29    30    2
    25    29    32    1
    26    32    33    1
    27    32    35    1
    28    35    36    1
    29    35    37    1
    30    35    38    1
    31     7     8    1
    32     8     9    1
    33     9    10    1
    34     9    11    1
    35     9    12    1
    36    20    14   ar
    37     6     1   ar
    38    27    21   ar
    39    12     3    1
    40    28    31    1
    41    33    34    1
@<TRIPOS>MOLECULE
*****
 38 41 0 0 0
SMALL
GASTEIGER

@<TRIPOS>ATOM
      1 C         141.9723  138.7023  160.9125 C.ar    1  UNL1        0.0840
      2 N         142.7171  137.8810  159.9021 N.ar    1  UNL1       -0.2119
      3 C         142.3728  137.9902  158.4463 C.ar    1  UNL1        0.2219
      4 C         141.2839  138.9207  158.0008 C.ar    1  UNL1        0.0488
      5 C         140.5392  139.7420  159.0112 C.ar    1  UNL1        0.0034
      6 C         140.8834  139.6328  160.4670 C.ar    1  UNL1        0.0176
      7 C         140.9397  139.0299  156.5449 C.3     1  UNL1        0.1021
      8 C         141.6844  138.2086  155.5345 C.3     1  UNL1        0.0643
      9 C         142.7733  137.2782  155.9800 C.3     1  UNL1        0.1368
     10 C         143.8757  136.2632  155.9116 C.3     1  UNL1        0.0437
     11 C         142.8119  137.0349  154.5003 C.3     1  UNL1        0.0437
     12 O         143.1176  137.1690  157.4358 O.3     1  UNL1       -0.4676
     13 C         144.2552  140.2909  162.0373 C.3     1  UNL1        0.0311
     14 C         143.4580  139.3874  162.9308 C.ar    1  UNL1       -0.0196
     15 C         143.8022  139.2783  164.3867 C.ar    1  UNL1        0.0072
     16 C         143.0050  138.3748  165.2802 C.ar    1  UNL1        0.0574
     17 CL        143.3492  138.2657  166.7361 Cl      1  UNL1       -0.0823
     18 C         141.8636  137.5806  164.7178 C.ar    1  UNL1        0.0114
     19 C         141.5194  137.6897  163.2619 C.ar    1  UNL1        0.0020
     20 C         142.3166  138.5931  162.3684 C.ar    1  UNL1        0.0139
     21 C         140.1387  140.4540  161.4775 C.ar    1  UNL1        0.0015
     22 C         138.8397  139.9559  162.0384 C.ar    1  UNL1        0.0009
     23 C         138.0950  140.7771  163.0488 C.ar    1  UNL1        0.0114
     24 C         138.6492  142.0965  163.4983 C.ar    1  UNL1        0.0577
     25 CL        137.9045  142.9177  164.5087 Cl      1  UNL1       -0.0822
     26 C         139.9481  142.5947  162.9374 C.ar    1  UNL1        0.0114
     27 C         140.6929  141.7734  161.9269 C.ar    1  UNL1        0.0009
     28 N         139.8507  139.9603  156.0994 N.am    1  UNL1       -0.2997
     29 C         138.5319  139.4086  155.6455 C.2     1  UNL1        0.2584
     30 O         138.3019  137.9263  155.6370 O.2     1  UNL1       -0.2722
     31 H         140.0017  140.9332  156.1049 H       1  UNL1        0.1498
     32 C         137.4429  140.3390  155.2000 C.3     1  UNL1        0.2830
     33 O         137.6149  141.1513  153.9508 O.3     1  UNL1       -0.3697
     34 H         136.8248  141.6955  153.8077 H       1  UNL1        0.2112
     35 C         136.1819  140.4571  156.0038 C.3     1  UNL1        0.4305
     36 F         134.9210  140.5752  156.8075 F       1  UNL1       -0.1670
     37 F         136.8733  141.3924  156.9509 F       1  UNL1       -0.1670
     38 F         135.4905  139.5218  155.0566 F       1  UNL1       -0.1670
@<TRIPOS>BOND
     1    13    14    1
     2    14    15   ar
     3    15    16   ar
     4    16    17    1
     5    16    18   ar
     6    18    19   ar
     7    19    20   ar
     8    20     1    1
     9     1     2   ar
    10     2     3   ar
    11     3     4   ar
    12     4     5   ar
    13     5     6   ar
    14     6    21    1
    15    21    22   ar
    16    22    23   ar
    17    23    24   ar
    18    24    25    1
    19    24    26   ar
    20    26    27   ar
    21     4     7    1
    22     7    28    1
    23    28    29   am
    24    29    30    2
    25    29    32    1
    26    32    33    1
    27    32    35    1
    28    35    36    1
    29    35    37    1
    30    35    38    1
    31     7     8    1
    32     8     9    1
    33     9    10    1
    34     9    11    1
    35     9    12    1
    36    20    14   ar
    37     6     1   ar
    38    27    21   ar
    39    12     3    1
    40    28    31    1
    41    33    34    1
@<TRIPOS>MOLECULE
*****
 38 41 0 0 0
SMALL
GASTEIGER

@<TRIPOS>ATOM
      1 C         139.1266  139.9212  161.1813 C.ar    1  UNL1        0.0840
      2 N         137.9878  140.0658  160.2158 N.ar    1  UNL1       -0.2119
      3 C         138.2584  140.4307  158.7863 C.ar    1  UNL1        0.2219
      4 C         139.6677  140.6510  158.3223 C.ar    1  UNL1        0.0488
      5 C         140.8065  140.5063  159.2878 C.ar    1  UNL1        0.0034
      6 C         140.5359  140.1414  160.7173 C.ar    1  UNL1        0.0176
      7 C         139.9383  141.0159  156.8926 C.3     1  UNL1        0.1021
      8 C         138.7995  141.1605  155.9271 C.3     1  UNL1        0.0643
      9 C         137.3902  140.9403  156.3911 C.3     1  UNL1        0.1368
     10 C         135.8945  140.8339  156.3542 C.3     1  UNL1        0.0437
     11 C         137.1413  141.2682  154.9487 C.3     1  UNL1        0.0437
     12 O         137.1196  140.5754  157.8206 O.3     1  UNL1       -0.4676
     13 C         138.3135  142.0409  163.1423 C.3     1  UNL1        0.0311
     14 C         138.4495  140.6162  163.5914 C.ar    1  UNL1       -0.0196
     15 C         138.1790  140.2513  165.0210 C.ar    1  UNL1        0.0072
     16 C         138.3149  138.8266  165.4701 C.ar    1  UNL1        0.0574
     17 CL        138.0444  138.4617  166.8996 Cl      1  UNL1       -0.0823
     18 C         138.7215  137.7667  164.4896 C.ar    1  UNL1        0.0114
     19 C         138.9920  138.1316  163.0600 C.ar    1  UNL1        0.0020
     20 C         138.8560  139.5563  162.6109 C.ar    1  UNL1        0.0139
     21 C         141.6747  139.9967  161.6829 C.ar    1  UNL1        0.0015
     22 C         142.4399  138.7085  161.7525 C.ar    1  UNL1        0.0009
     23 C         143.5786  138.5638  162.7180 C.ar    1  UNL1        0.0114
     24 C         143.9522  139.7074  163.6141 C.ar    1  UNL1        0.0577
     25 CL        145.0909  139.5626  164.5796 Cl      1  UNL1       -0.0822
     26 C         143.1869  140.9956  163.5445 C.ar    1  UNL1        0.0114
     27 C         142.0482  141.1403  162.5789 C.ar    1  UNL1        0.0009
     28 N         141.3476  141.2361  156.4286 N.am    1  UNL1       -0.2997
     29 C         141.9895  142.5819  156.5923 C.2     1  UNL1        0.2584
     30 O         141.2220  143.7075  157.2200 O.2     1  UNL1       -0.2722
     31 H         141.8513  140.4973  156.0166 H       1  UNL1        0.1498
     32 C         143.3988  142.8021  156.1283 C.3     1  UNL1        0.2830
     33 O         143.7203  143.9591  155.2295 O.3     1  UNL1       -0.3697
     34 H         144.6686  143.9563  155.0255 H       1  UNL1        0.2112
     35 C         144.4866  141.8652  156.5631 C.3     1  UNL1        0.4305
     36 F         145.5744  140.9284  156.9979 F       1  UNL1       -0.1670
     37 F         144.4249  141.1760  155.2323 F       1  UNL1       -0.1670
     38 F         144.5483  142.5544  157.8940 F       1  UNL1       -0.1670
@<TRIPOS>BOND
     1    13    14    1
     2    14    15   ar
     3    15    16   ar
     4    16    17    1
     5    16    18   ar
     6    18    19   ar
     7    19    20   ar
     8    20     1    1
     9     1     2   ar
    10     2     3   ar
    11     3     4   ar
    12     4     5   ar
    13     5     6   ar
    14     6    21    1
    15    21    22   ar
    16    22    23   ar
    17    23    24   ar
    18    24    25    1
    19    24    26   ar
    20    26    27   ar
    21     4     7    1
    22     7    28    1
    23    28    29   am
    24    29    30    2
    25    29    32    1
    26    32    33    1
    27    32    35    1
    28    35    36    1
    29    35    37    1
    30    35    38    1
    31     7     8    1
    32     8     9    1
    33     9    10    1
    34     9    11    1
    35     9    12    1
    36    20    14   ar
    37     6     1   ar
    38    27    21   ar
    39    12     3    1
    40    28    31    1
    41    33    34    1
@<TRIPOS>MOLECULE
*****
 38 41 0 0 0
SMALL
GASTEIGER

@<TRIPOS>ATOM
      1 C         142.7415  140.7986  162.3599 C.ar    1  UNL1        0.0840
      2 N         143.6548  141.4788  161.3836 N.ar    1  UNL1       -0.2119
      3 C         143.7063  141.0167  159.9576 C.ar    1  UNL1        0.2219
      4 C         142.8444  139.8744  159.5078 C.ar    1  UNL1        0.0488
      5 C         141.9311  139.1942  160.4840 C.ar    1  UNL1        0.0034
      6 C         141.8797  139.6563  161.9101 C.ar    1  UNL1        0.0176
      7 C         142.8959  139.4123  158.0816 C.3     1  UNL1        0.1021
      8 C         143.8091  140.0925  157.1053 C.3     1  UNL1        0.0643
      9 C         144.6710  141.2348  157.5551 C.3     1  UNL1        0.1368
     10 C         145.6713  142.3513  157.5034 C.3     1  UNL1        0.0437
     11 C         145.0699  141.1605  156.1110 C.3     1  UNL1        0.0437
     12 O         144.6196  141.6970  158.9812 O.3     1  UNL1       -0.4676
     13 C         144.5502  139.5559  164.4055 C.3     1  UNL1        0.0311
     14 C         143.5944  140.6394  164.8089 C.ar    1  UNL1       -0.0196
     15 C         143.5430  141.1014  166.2350 C.ar    1  UNL1        0.0072
     16 C         142.5872  142.1849  166.6384 C.ar    1  UNL1        0.0574
     17 CL        142.5358  142.6469  168.0645 Cl      1  UNL1       -0.0823
     18 C         141.6829  142.8062  165.6156 C.ar    1  UNL1        0.0114
     19 C         141.7343  142.3441  164.1894 C.ar    1  UNL1        0.0020
     20 C         142.6901  141.2607  163.7861 C.ar    1  UNL1        0.0139
     21 C         140.9664  138.9761  162.8865 C.ar    1  UNL1        0.0015
     22 C         141.4329  137.7572  163.6259 C.ar    1  UNL1        0.0009
     23 C         140.5196  137.0770  164.6023 C.ar    1  UNL1        0.0114
     24 C         139.1398  137.6157  164.8392 C.ar    1  UNL1        0.0577
     25 CL        138.2266  136.9354  165.8155 Cl      1  UNL1       -0.0822
     26 C         138.6733  138.8345  164.0998 C.ar    1  UNL1        0.0114
     27 C         139.5866  139.5147  163.1234 C.ar    1  UNL1        0.0009
     28 N         142.0340  138.2700  157.6318 N.am    1  UNL1       -0.2997
     29 C         142.5953  137.2218  156.7174 C.2     1  UNL1        0.2584
     30 O         144.0184  137.3158  156.2527 O.2     1  UNL1       -0.2722
     31 H         141.1000  138.2083  157.9367 H       1  UNL1        0.1498
     32 C         141.7334  136.0794  156.2676 C.3     1  UNL1        0.2830
     33 O         140.2644  136.2891  156.0487 O.3     1  UNL1       -0.3697
     34 H         139.8581  135.4563  155.7619 H       1  UNL1        0.2112
     35 C         142.3407  134.7274  156.0366 C.3     1  UNL1        0.4305
     36 F         142.9479  133.3754  155.8058 F       1  UNL1       -0.1670
     37 F         142.8520  134.7162  157.4467 F       1  UNL1       -0.1670
     38 F         141.8294  134.7385  154.6266 F       1  UNL1       -0.1670
@<TRIPOS>BOND
     1    13    14    1
     2    14    15   ar
     3    15    16   ar
     4    16    17    1
     5    16    18   ar
     6    18    19   ar
     7    19    20   ar
     8    20     1    1
     9     1     2   ar
    10     2     3   ar
    11     3     4   ar
    12     4     5   ar
    13     5     6   ar
    14     6    21    1
    15    21    22   ar
    16    22    23   ar
    17    23    24   ar
    18    24    25    1
    19    24    26   ar
    20    26    27   ar
    21     4     7    1
    22     7    28    1
    23    28    29   am
    24    29    30    2
    25    29    32    1
    26    32    33    1
    27    32    35    1
    28    35    36    1
    29    35    37    1
    30    35    38    1
    31     7     8    1
    32     8     9    1
    33     9    10    1
    34     9    11    1
    35     9    12    1
    36    20    14   ar
    37     6     1   ar
    38    27    21   ar
    39    12     3    1
    40    28    31    1
    41    33    34    1
