@<TRIPOS>MOLECULE
*****
 31 35 0 0 0
SMALL
GASTEIGER

@<TRIPOS>ATOM
      1 C         140.3973  144.8965  158.3664 C.3     1  UNL1        0.0181
      2 C         140.4827  145.3011  159.8084 C.3     1  UNL1        0.0036
      3 C         140.5240  145.3999  161.3045 C.3     1  UNL1        0.0226
      4 C         140.3306  144.0223  161.8656 C.3     1  UNL1        0.0866
      5 C         140.1698  143.0720  160.7162 C.3     1  UNL1        0.0226
      6 C         140.2638  143.8624  159.4448 C.3     1  UNL1        0.0036
      7 N         140.3029  143.6588  163.3207 N.ar    1  UNL1       -0.3167
      8 C         139.0896  143.6428  164.2025 C.ar    1  UNL1        0.1207
      9 C         137.6910  143.9875  163.7841 C.3     1  UNL1        0.0718
     10 N         139.5205  143.2215  165.5761 N.ar    1  UNL1       -0.2309
     11 C         141.0001  142.9772  165.5432 C.ar    1  UNL1        0.0985
     12 C         141.9696  142.5435  166.6025 C.ar    1  UNL1        0.0229
     13 C         143.4226  142.3801  166.2678 C.ar    1  UNL1        0.0313
     14 C         143.9061  142.6504  164.8738 C.ar    1  UNL1        0.1417
     15 F         145.3592  142.4870  164.5392 F       1  UNL1       -0.2041
     16 C         142.9367  143.0840  163.8146 C.ar    1  UNL1        0.0484
     17 C         141.4837  143.2474  164.1493 C.ar    1  UNL1        0.0808
     18 C         140.4250  145.2600  156.9115 C.3     1  UNL1        0.0718
     19 N         140.3565  146.6999  156.4967 N.am    1  UNL1       -0.3025
     20 C         139.2072  147.1870  155.6650 C.2     1  UNL1        0.2458
     21 O         138.1263  146.2342  155.2481 O.2     1  UNL1       -0.2701
     22 H         141.0660  147.3252  156.7703 H       1  UNL1        0.1497
     23 C         139.1387  148.6269  155.2502 C.ar    1  UNL1        0.0534
     24 C         139.7252  149.0583  153.9388 C.ar    1  UNL1        0.0054
     25 C         139.6568  150.4982  153.5240 C.ar    1  UNL1        0.0115
     26 C         139.0018  151.5067  154.4207 C.ar    1  UNL1        0.0577
     27 CL        138.9334  152.9465  154.0059 Cl      1  UNL1       -0.0822
     28 C         138.4153  151.0753  155.7322 C.ar    1  UNL1        0.0115
     29 C         138.4837  149.6354  156.1469 C.ar    1  UNL1        0.0054
     30 C         139.6254  142.9830  155.9491 C.3     1  UNL1        0.0017
     31 C         140.5212  144.1836  155.8711 C.3     1  UNL1        0.0196
@<TRIPOS>BOND
     1    30    31    1
     2    18    31    1
     3    18    19    1
     4    19    20   am
     5    20    21    2
     6    20    23    1
     7    23    24   ar
     8    24    25   ar
     9    25    26   ar
    10    26    27    1
    11    26    28   ar
    12    28    29   ar
    13     1    18    1
    14     1     2    1
    15     2     3    1
    16     3     4    1
    17     4     7    1
    18     7     8   ar
    19     8     9    1
    20     8    10   ar
    21    10    11   ar
    22    11    12   ar
    23    12    13   ar
    24    13    14   ar
    25    14    15    1
    26    14    16   ar
    27    16    17   ar
    28     4     5    1
    29     6     5    1
    30    29    23   ar
    31     6     1    1
    32     6     2    1
    33    17     7   ar
    34    17    11   ar
    35    19    22    1
@<TRIPOS>MOLECULE
*****
 31 35 0 0 0
SMALL
GASTEIGER

@<TRIPOS>ATOM
      1 C         137.4819  142.4682  156.3186 C.3     1  UNL1        0.0181
      2 C         138.0593  142.2015  157.6771 C.3     1  UNL1        0.0036
      3 C         138.8162  142.1842  158.9720 C.3     1  UNL1        0.0226
      4 C         139.7957  143.3200  158.9518 C.3     1  UNL1        0.0866
      5 C         139.6441  144.0395  157.6444 C.3     1  UNL1        0.0226
      6 C         138.5710  143.3483  156.8566 C.3     1  UNL1        0.0036
      7 N         140.7578  143.6743  160.0467 N.ar    1  UNL1       -0.3167
      8 C         142.2498  143.7576  159.9166 C.ar    1  UNL1        0.1207
      9 C         143.0417  143.5012  158.6687 C.3     1  UNL1        0.0718
     10 N         142.8109  144.1422  161.2535 N.ar    1  UNL1       -0.2309
     11 C         141.6656  144.2966  162.2098 C.ar    1  UNL1        0.0985
     12 C         141.6143  144.6632  163.6634 C.ar    1  UNL1        0.0229
     13 C         140.2941  144.7406  164.3712 C.ar    1  UNL1        0.0313
     14 C         139.0252  144.4514  163.6253 C.ar    1  UNL1        0.1417
     15 F         137.7049  144.5288  164.3332 F       1  UNL1       -0.2041
     16 C         139.0765  144.0848  162.1718 C.ar    1  UNL1        0.0484
     17 C         140.3967  144.0074  161.4640 C.ar    1  UNL1        0.0808
     18 C         136.5198  142.1139  155.2237 C.3     1  UNL1        0.0718
     19 N         135.0895  141.8047  155.5530 N.am    1  UNL1       -0.3025
     20 C         134.6340  140.3790  155.6523 C.2     1  UNL1        0.2458
     21 O         135.6089  139.2625  155.4223 O.2     1  UNL1       -0.2701
     22 H         134.4496  142.5376  155.7040 H       1  UNL1        0.1497
     23 C         133.2036  140.0698  155.9817 C.ar    1  UNL1        0.0534
     24 C         132.1388  141.0976  155.7376 C.ar    1  UNL1        0.0054
     25 C         130.7084  140.7884  156.0670 C.ar    1  UNL1        0.0115
     26 C         130.3429  139.4514  156.6405 C.ar    1  UNL1        0.0577
     27 CL        128.9126  139.1423  156.9698 Cl      1  UNL1       -0.0822
     28 C         131.4078  138.4236  156.8846 C.ar    1  UNL1        0.0115
     29 C         132.8382  138.7328  156.5553 C.ar    1  UNL1        0.0054
     30 C         137.6951  143.2504  153.2045 C.3     1  UNL1        0.0017
     31 C         136.9881  142.0689  153.7993 C.3     1  UNL1        0.0196
@<TRIPOS>BOND
     1    30    31    1
     2    18    31    1
     3    18    19    1
     4    19    20   am
     5    20    21    2
     6    20    23    1
     7    23    24   ar
     8    24    25   ar
     9    25    26   ar
    10    26    27    1
    11    26    28   ar
    12    28    29   ar
    13     1    18    1
    14     1     2    1
    15     2     3    1
    16     3     4    1
    17     4     7    1
    18     7     8   ar
    19     8     9    1
    20     8    10   ar
    21    10    11   ar
    22    11    12   ar
    23    12    13   ar
    24    13    14   ar
    25    14    15    1
    26    14    16   ar
    27    16    17   ar
    28     4     5    1
    29     6     5    1
    30    29    23   ar
    31     6     1    1
    32     6     2    1
    33    17     7   ar
    34    17    11   ar
    35    19    22    1
@<TRIPOS>MOLECULE
*****
 31 35 0 0 0
SMALL
GASTEIGER

@<TRIPOS>ATOM
      1 C         140.2564  138.2610  157.9265 C.3     1  UNL1        0.0181
      2 C         139.4721  138.9240  159.0199 C.3     1  UNL1        0.0036
      3 C         138.9668  139.6082  160.2555 C.3     1  UNL1        0.0226
      4 C         140.1361  139.8484  161.1636 C.3     1  UNL1        0.0866
      5 C         141.3643  139.3127  160.4894 C.3     1  UNL1        0.0226
      6 C         140.9540  138.7414  159.1646 C.3     1  UNL1        0.0036
      7 N         140.0862  140.5085  162.5097 N.ar    1  UNL1       -0.3167
      8 C         140.5015  141.9167  162.8170 C.ar    1  UNL1        0.1207
      9 C         141.0396  142.9121  161.8324 C.3     1  UNL1        0.0718
     10 N         140.2841  142.1547  164.2820 N.ar    1  UNL1       -0.2309
     11 C         139.7345  140.8936  164.8800 C.ar    1  UNL1        0.0985
     12 C         139.3297  140.5403  166.2804 C.ar    1  UNL1        0.0229
     13 C         138.8025  139.1696  166.5855 C.ar    1  UNL1        0.0313
     14 C         138.6802  138.1521  165.4901 C.ar    1  UNL1        0.1417
     15 F         138.1529  136.7813  165.7952 F       1  UNL1       -0.2041
     16 C         139.0850  138.5054  164.0897 C.ar    1  UNL1        0.0484
     17 C         139.6122  139.8762  163.7846 C.ar    1  UNL1        0.0808
     18 C         140.3063  137.6010  156.5806 C.3     1  UNL1        0.0718
     19 N         140.9300  136.2448  156.4329 N.am    1  UNL1       -0.3025
     20 C         142.4143  136.0822  156.5766 C.2     1  UNL1        0.2458
     21 O         143.2748  137.2758  156.8680 O.2     1  UNL1       -0.2701
     22 H         140.3653  135.4614  156.2417 H       1  UNL1        0.1497
     23 C         143.0380  134.7260  156.4290 C.ar    1  UNL1        0.0534
     24 C         142.9131  133.9800  155.1337 C.ar    1  UNL1        0.0054
     25 C         143.5368  132.6239  154.9861 C.ar    1  UNL1        0.0115
     26 C         144.2854  132.0137  156.1338 C.ar    1  UNL1        0.0577
     27 CL        144.9091  130.6575  155.9861 Cl      1  UNL1       -0.0822
     28 C         144.4103  132.7597  157.4291 C.ar    1  UNL1        0.0115
     29 C         143.7866  134.1158  157.5768 C.ar    1  UNL1        0.0054
     30 C         139.1281  137.4959  154.2674 C.3     1  UNL1        0.0017
     31 C         139.7326  138.2971  155.3820 C.3     1  UNL1        0.0196
@<TRIPOS>BOND
     1    30    31    1
     2    18    31    1
     3    18    19    1
     4    19    20   am
     5    20    21    2
     6    20    23    1
     7    23    24   ar
     8    24    25   ar
     9    25    26   ar
    10    26    27    1
    11    26    28   ar
    12    28    29   ar
    13     1    18    1
    14     1     2    1
    15     2     3    1
    16     3     4    1
    17     4     7    1
    18     7     8   ar
    19     8     9    1
    20     8    10   ar
    21    10    11   ar
    22    11    12   ar
    23    12    13   ar
    24    13    14   ar
    25    14    15    1
    26    14    16   ar
    27    16    17   ar
    28     4     5    1
    29     6     5    1
    30    29    23   ar
    31     6     1    1
    32     6     2    1
    33    17     7   ar
    34    17    11   ar
    35    19    22    1
@<TRIPOS>MOLECULE
*****
 31 35 0 0 0
SMALL
GASTEIGER

@<TRIPOS>ATOM
      1 C         141.9902  138.8556  158.2280 C.3     1  UNL1        0.0181
      2 C         140.7037  138.8713  158.9992 C.3     1  UNL1        0.0036
      3 C         139.5839  139.0487  159.9814 C.3     1  UNL1        0.0226
      4 C         140.1118  139.8251  161.1512 C.3     1  UNL1        0.0866
      5 C         141.5580  140.1275  160.8921 C.3     1  UNL1        0.0226
      6 C         141.9238  139.5381  159.5621 C.3     1  UNL1        0.0036
      7 N         139.3308  140.2282  162.3668 N.ar    1  UNL1       -0.3167
      8 C         138.7801  139.3002  163.4086 C.ar    1  UNL1        0.1207
      9 C         138.9135  137.8062  163.4179 C.3     1  UNL1        0.0718
     10 N         138.0724  140.1286  164.4396 N.ar    1  UNL1       -0.2309
     11 C         138.1857  141.5685  164.0349 C.ar    1  UNL1        0.0985
     12 C         137.6812  142.8316  164.6674 C.ar    1  UNL1        0.0229
     13 C         137.9545  144.1562  164.0188 C.ar    1  UNL1        0.0313
     14 C         138.7324  144.2177  162.7377 C.ar    1  UNL1        0.1417
     15 F         139.0057  145.5424  162.0892 F       1  UNL1       -0.2041
     16 C         139.2369  142.9547  162.1052 C.ar    1  UNL1        0.0484
     17 C         138.9636  141.6301  162.7538 C.ar    1  UNL1        0.0808
     18 C         142.7711  138.4526  157.0125 C.3     1  UNL1        0.0718
     19 N         143.3559  137.0744  156.9198 N.am    1  UNL1       -0.3025
     20 C         142.5100  135.9312  156.4428 C.2     1  UNL1        0.2458
     21 O         141.0792  136.1662  156.0586 O.2     1  UNL1       -0.2701
     22 H         144.2950  136.9201  157.1719 H       1  UNL1        0.1497
     23 C         143.0948  134.5530  156.3500 C.ar    1  UNL1        0.0534
     24 C         142.9485  133.7597  155.0855 C.ar    1  UNL1        0.0054
     25 C         143.5333  132.3815  154.9927 C.ar    1  UNL1        0.0115
     26 C         144.2644  131.7966  156.1646 C.ar    1  UNL1        0.0577
     27 CL        144.8492  130.4185  156.0718 Cl      1  UNL1       -0.0822
     28 C         144.4108  132.5899  157.4292 C.ar    1  UNL1        0.0115
     29 C         143.8260  133.9681  157.5220 C.ar    1  UNL1        0.0054
     30 C         142.2503  140.7449  155.9063 C.3     1  UNL1        0.0017
     31 C         142.9674  139.4277  155.8896 C.3     1  UNL1        0.0196
@<TRIPOS>BOND
     1    30    31    1
     2    18    31    1
     3    18    19    1
     4    19    20   am
     5    20    21    2
     6    20    23    1
     7    23    24   ar
     8    24    25   ar
     9    25    26   ar
    10    26    27    1
    11    26    28   ar
    12    28    29   ar
    13     1    18    1
    14     1     2    1
    15     2     3    1
    16     3     4    1
    17     4     7    1
    18     7     8   ar
    19     8     9    1
    20     8    10   ar
    21    10    11   ar
    22    11    12   ar
    23    12    13   ar
    24    13    14   ar
    25    14    15    1
    26    14    16   ar
    27    16    17   ar
    28     4     5    1
    29     6     5    1
    30    29    23   ar
    31     6     1    1
    32     6     2    1
    33    17     7   ar
    34    17    11   ar
    35    19    22    1
@<TRIPOS>MOLECULE
*****
 31 35 0 0 0
SMALL
GASTEIGER

@<TRIPOS>ATOM
      1 C         143.1338  139.6306  162.1387 C.3     1  UNL1        0.0181
      2 C         142.0012  139.0803  161.3235 C.3     1  UNL1        0.0036
      3 C         141.0773  138.5370  160.2741 C.3     1  UNL1        0.0226
      4 C         141.8380  138.4553  158.9839 C.3     1  UNL1        0.0866
      5 C         143.2322  138.9482  159.2359 C.3     1  UNL1        0.0226
      6 C         143.3330  139.3344  160.6818 C.3     1  UNL1        0.0036
      7 N         141.2992  137.9667  157.6721 N.ar    1  UNL1       -0.3167
      8 C         140.1339  138.5464  156.9266 C.ar    1  UNL1        0.1207
      9 C         139.3026  139.7167  157.3620 C.3     1  UNL1        0.0718
     10 N         139.9457  137.7505  155.6692 N.ar    1  UNL1       -0.2309
     11 C         140.9948  136.6788  155.6376 C.ar    1  UNL1        0.0985
     12 C         141.2963  135.5985  154.6416 C.ar    1  UNL1        0.0229
     13 C         142.4344  134.6519  154.8834 C.ar    1  UNL1        0.0313
     14 C         143.2710  134.7855  156.1213 C.ar    1  UNL1        0.1417
     15 F         144.4092  133.8388  156.3632 F       1  UNL1       -0.2041
     16 C         142.9694  135.8658  157.1173 C.ar    1  UNL1        0.0484
     17 C         141.8313  136.8124  156.8755 C.ar    1  UNL1        0.0808
     18 C         143.6725  140.1193  163.4505 C.3     1  UNL1        0.0718
     19 N         142.7368  140.3937  164.5902 N.am    1  UNL1       -0.3025
     20 C         142.4420  139.3189  165.5941 C.2     1  UNL1        0.2458
     21 O         143.0829  137.9696  165.4582 O.2     1  UNL1       -0.2701
     22 H         142.3160  141.2793  164.6793 H       1  UNL1        0.1497
     23 C         141.5061  139.5934  166.7338 C.ar    1  UNL1        0.0534
     24 C         140.0236  139.5837  166.5060 C.ar    1  UNL1        0.0054
     25 C         139.0878  139.8581  167.6457 C.ar    1  UNL1        0.0115
     26 C         139.6346  140.1423  169.0133 C.ar    1  UNL1        0.0577
     27 CL        138.6988  140.4168  170.1530 Cl      1  UNL1       -0.0822
     28 C         141.1172  140.1520  169.2412 C.ar    1  UNL1        0.0115
     29 C         142.0530  139.8775  168.1015 C.ar    1  UNL1        0.0054
     30 C         145.7213  141.7155  163.5204 C.3     1  UNL1        0.0017
     31 C         145.1472  140.3336  163.6227 C.3     1  UNL1        0.0196
@<TRIPOS>BOND
     1    30    31    1
     2    18    31    1
     3    18    19    1
     4    19    20   am
     5    20    21    2
     6    20    23    1
     7    23    24   ar
     8    24    25   ar
     9    25    26   ar
    10    26    27    1
    11    26    28   ar
    12    28    29   ar
    13     1    18    1
    14     1     2    1
    15     2     3    1
    16     3     4    1
    17     4     7    1
    18     7     8   ar
    19     8     9    1
    20     8    10   ar
    21    10    11   ar
    22    11    12   ar
    23    12    13   ar
    24    13    14   ar
    25    14    15    1
    26    14    16   ar
    27    16    17   ar
    28     4     5    1
    29     6     5    1
    30    29    23   ar
    31     6     1    1
    32     6     2    1
    33    17     7   ar
    34    17    11   ar
    35    19    22    1
@<TRIPOS>MOLECULE
*****
 31 35 0 0 0
SMALL
GASTEIGER

@<TRIPOS>ATOM
      1 C         142.1771  140.9360  162.0714 C.3     1  UNL1        0.0181
      2 C         141.1775  141.2341  163.1494 C.3     1  UNL1        0.0036
      3 C         140.3526  141.3354  164.3982 C.3     1  UNL1        0.0226
      4 C         140.9792  140.4570  165.4402 C.3     1  UNL1        0.0866
      5 C         142.1913  139.8128  164.8355 C.3     1  UNL1        0.0226
      6 C         142.3138  140.2930  163.4197 C.3     1  UNL1        0.0036
      7 N         140.4811  140.2578  166.8410 N.ar    1  UNL1       -0.3167
      8 C         139.1646  139.6541  167.2311 C.ar    1  UNL1        0.1207
      9 C         138.1149  139.1436  166.2890 C.3     1  UNL1        0.0718
     10 N         139.0820  139.6506  168.7289 N.ar    1  UNL1       -0.2309
     11 C         140.3474  140.2521  169.2643 C.ar    1  UNL1        0.0985
     12 C         140.8241  140.5066  170.6636 C.ar    1  UNL1        0.0229
     13 C         142.1654  141.1364  170.8961 C.ar    1  UNL1        0.0313
     14 C         143.0301  141.5117  169.7293 C.ar    1  UNL1        0.1417
     15 F         144.3715  142.1415  169.9619 F       1  UNL1       -0.2041
     16 C         142.5535  141.2572  168.3300 C.ar    1  UNL1        0.0484
     17 C         141.2122  140.6274  168.0976 C.ar    1  UNL1        0.0808
     18 C         142.6751  141.1352  160.6707 C.3     1  UNL1        0.0718
     19 N         142.0942  140.3299  159.5464 N.am    1  UNL1       -0.3025
     20 C         142.6553  138.9763  159.2254 C.2     1  UNL1        0.2458
     21 O         143.7974  138.4281  160.0286 O.2     1  UNL1       -0.2701
     22 H         141.3446  140.6897  159.0193 H       1  UNL1        0.1497
     23 C         142.0743  138.1709  158.1011 C.ar    1  UNL1        0.0534
     24 C         142.9033  137.1195  157.4252 C.ar    1  UNL1        0.0054
     25 C         142.3224  136.3141  156.3010 C.ar    1  UNL1        0.0115
     26 C         140.9123  136.5603  155.8527 C.ar    1  UNL1        0.0577
     27 CL        140.3314  135.7550  154.7284 Cl      1  UNL1       -0.0822
     28 C         140.0832  137.6118  156.5286 C.ar    1  UNL1        0.0115
     29 C         140.6641  138.4172  157.6528 C.ar    1  UNL1        0.0054
     30 C         144.8050  142.4158  161.4282 C.3     1  UNL1        0.0017
     31 C         143.7542  142.1398  160.3940 C.3     1  UNL1        0.0196
@<TRIPOS>BOND
     1    30    31    1
     2    18    31    1
     3    18    19    1
     4    19    20   am
     5    20    21    2
     6    20    23    1
     7    23    24   ar
     8    24    25   ar
     9    25    26   ar
    10    26    27    1
    11    26    28   ar
    12    28    29   ar
    13     1    18    1
    14     1     2    1
    15     2     3    1
    16     3     4    1
    17     4     7    1
    18     7     8   ar
    19     8     9    1
    20     8    10   ar
    21    10    11   ar
    22    11    12   ar
    23    12    13   ar
    24    13    14   ar
    25    14    15    1
    26    14    16   ar
    27    16    17   ar
    28     4     5    1
    29     6     5    1
    30    29    23   ar
    31     6     1    1
    32     6     2    1
    33    17     7   ar
    34    17    11   ar
    35    19    22    1
@<TRIPOS>MOLECULE
*****
 31 35 0 0 0
SMALL
GASTEIGER

@<TRIPOS>ATOM
      1 C         141.8441  138.2462  158.4618 C.3     1  UNL1        0.0181
      2 C         141.8408  138.7110  159.8880 C.3     1  UNL1        0.0036
      3 C         141.5317  139.2237  161.2633 C.3     1  UNL1        0.0226
      4 C         140.0686  139.5496  161.3186 C.3     1  UNL1        0.0866
      5 C         139.4734  139.2384  159.9774 C.3     1  UNL1        0.0226
      6 C         140.5687  138.7202  159.0932 C.3     1  UNL1        0.0036
      7 N         139.3303  140.0916  162.5066 N.ar    1  UNL1       -0.3167
      8 C         138.7667  139.2840  163.6380 C.ar    1  UNL1        0.1207
      9 C         138.8425  137.7927  163.7803 C.3     1  UNL1        0.0718
     10 N         138.1140  140.2296  164.6023 N.ar    1  UNL1       -0.2309
     11 C         138.2742  141.6216  164.0668 C.ar    1  UNL1        0.0985
     12 C         137.8327  142.9557  164.5912 C.ar    1  UNL1        0.0229
     13 C         138.1429  144.2046  163.8204 C.ar    1  UNL1        0.0313
     14 C         138.8946  144.1192  162.5251 C.ar    1  UNL1        0.1417
     15 F         139.2048  145.3681  161.7543 F       1  UNL1       -0.2041
     16 C         139.3361  142.7851  162.0007 C.ar    1  UNL1        0.0484
     17 C         139.0259  141.5363  162.7715 C.ar    1  UNL1        0.0808
     18 C         142.5824  137.7043  157.2739 C.3     1  UNL1        0.0718
     19 N         143.0587  136.2819  157.2718 N.am    1  UNL1       -0.3025
     20 C         142.3263  135.2470  156.4702 C.2     1  UNL1        0.2458
     21 O         141.1177  135.6344  155.6708 O.2     1  UNL1       -0.2701
     22 H         143.8519  136.0276  157.7965 H       1  UNL1        0.1497
     23 C         142.8026  133.8245  156.4681 C.ar    1  UNL1        0.0534
     24 C         141.9978  132.7651  155.7755 C.ar    1  UNL1        0.0054
     25 C         142.4740  131.3428  155.7733 C.ar    1  UNL1        0.0115
     26 C         143.7552  130.9798  156.4639 C.ar    1  UNL1        0.0577
     27 CL        144.2315  129.5574  156.4617 Cl      1  UNL1       -0.0822
     28 C         144.5601  132.0392  157.1565 C.ar    1  UNL1        0.0115
     29 C         144.0839  133.4616  157.1586 C.ar    1  UNL1        0.0054
     30 C         144.1618  138.5096  155.3747 C.3     1  UNL1        0.0017
     31 C         142.8445  138.5847  156.0880 C.3     1  UNL1        0.0196
@<TRIPOS>BOND
     1    30    31    1
     2    18    31    1
     3    18    19    1
     4    19    20   am
     5    20    21    2
     6    20    23    1
     7    23    24   ar
     8    24    25   ar
     9    25    26   ar
    10    26    27    1
    11    26    28   ar
    12    28    29   ar
    13     1    18    1
    14     1     2    1
    15     2     3    1
    16     3     4    1
    17     4     7    1
    18     7     8   ar
    19     8     9    1
    20     8    10   ar
    21    10    11   ar
    22    11    12   ar
    23    12    13   ar
    24    13    14   ar
    25    14    15    1
    26    14    16   ar
    27    16    17   ar
    28     4     5    1
    29     6     5    1
    30    29    23   ar
    31     6     1    1
    32     6     2    1
    33    17     7   ar
    34    17    11   ar
    35    19    22    1
@<TRIPOS>MOLECULE
*****
 31 35 0 0 0
SMALL
GASTEIGER

@<TRIPOS>ATOM
      1 C         142.4560  138.3449  159.0140 C.3     1  UNL1        0.0181
      2 C         141.6193  139.0362  160.0495 C.3     1  UNL1        0.0036
      3 C         140.9833  139.5961  161.2872 C.3     1  UNL1        0.0226
      4 C         141.7673  139.1124  162.4709 C.3     1  UNL1        0.0866
      5 C         142.8881  138.2534  161.9648 C.3     1  UNL1        0.0226
      6 C         142.7966  138.2064  160.4683 C.3     1  UNL1        0.0036
      7 N         141.4810  139.4315  163.9083 N.ar    1  UNL1       -0.3167
      8 C         140.4343  138.7819  164.7640 C.ar    1  UNL1        0.1207
      9 C         139.4900  137.6992  164.3327 C.3     1  UNL1        0.0718
     10 N         140.4976  139.4052  166.1269 N.ar    1  UNL1       -0.2309
     11 C         141.5834  140.4400  166.1135 C.ar    1  UNL1        0.0985
     12 C         142.0972  141.3695  167.1727 C.ar    1  UNL1        0.0229
     13 C         143.2189  142.3152  166.8607 C.ar    1  UNL1        0.0313
     14 C         143.8267  142.3315  165.4895 C.ar    1  UNL1        0.1417
     15 F         144.9484  143.2773  165.1775 F       1  UNL1       -0.2041
     16 C         143.3129  141.4020  164.4303 C.ar    1  UNL1        0.0484
     17 C         142.1913  140.4562  164.7423 C.ar    1  UNL1        0.0808
     18 C         142.7423  138.0258  157.5767 C.3     1  UNL1        0.0718
     19 N         143.2891  136.6803  157.2016 N.am    1  UNL1       -0.3025
     20 C         142.4288  135.7016  156.4587 C.2     1  UNL1        0.2458
     21 O         141.0216  136.0683  156.0908 O.2     1  UNL1       -0.2701
     22 H         144.2127  136.4396  157.4431 H       1  UNL1        0.1497
     23 C         142.9757  134.3561  156.0836 C.ar    1  UNL1        0.0534
     24 C         143.9773  133.6795  156.9718 C.ar    1  UNL1        0.0054
     25 C         144.5241  132.3340  156.5968 C.ar    1  UNL1        0.0115
     26 C         144.0694  131.6652  155.3335 C.ar    1  UNL1        0.0577
     27 CL        144.6163  130.3197  154.9585 Cl      1  UNL1       -0.0822
     28 C         143.0678  132.3418  154.4453 C.ar    1  UNL1        0.0115
     29 C         142.5209  133.6873  154.8203 C.ar    1  UNL1        0.0054
     30 C         141.0917  139.5731  156.2993 C.3     1  UNL1        0.0017
     31 C         142.4818  139.0522  156.5142 C.3     1  UNL1        0.0196
@<TRIPOS>BOND
     1    30    31    1
     2    18    31    1
     3    18    19    1
     4    19    20   am
     5    20    21    2
     6    20    23    1
     7    23    24   ar
     8    24    25   ar
     9    25    26   ar
    10    26    27    1
    11    26    28   ar
    12    28    29   ar
    13     1    18    1
    14     1     2    1
    15     2     3    1
    16     3     4    1
    17     4     7    1
    18     7     8   ar
    19     8     9    1
    20     8    10   ar
    21    10    11   ar
    22    11    12   ar
    23    12    13   ar
    24    13    14   ar
    25    14    15    1
    26    14    16   ar
    27    16    17   ar
    28     4     5    1
    29     6     5    1
    30    29    23   ar
    31     6     1    1
    32     6     2    1
    33    17     7   ar
    34    17    11   ar
    35    19    22    1
@<TRIPOS>MOLECULE
*****
 31 35 0 0 0
SMALL
GASTEIGER

@<TRIPOS>ATOM
      1 C         139.2409  141.7315  162.2870 C.3     1  UNL1        0.0181
      2 C         140.3692  141.2934  163.1731 C.3     1  UNL1        0.0036
      3 C         141.3743  141.0606  164.2620 C.3     1  UNL1        0.0226
      4 C         141.0215  141.9507  165.4166 C.3     1  UNL1        0.0866
      5 C         139.7984  142.7337  165.0415 C.3     1  UNL1        0.0226
      6 C         139.3952  142.3275  163.6549 C.3     1  UNL1        0.0036
      7 N         141.7619  142.0418  166.7180 N.ar    1  UNL1       -0.3167
      8 C         143.1565  142.5616  166.9044 C.ar    1  UNL1        0.1207
      9 C         144.0557  143.0815  165.8222 C.3     1  UNL1        0.0718
     10 N         143.4941  142.4702  168.3630 N.ar    1  UNL1       -0.2309
     11 C         142.3081  141.8939  169.0781 C.ar    1  UNL1        0.0985
     12 C         142.0648  141.5760  170.5237 C.ar    1  UNL1        0.0229
     13 C         140.7508  140.9934  170.9525 C.ar    1  UNL1        0.0313
     14 C         139.6802  140.7286  169.9358 C.ar    1  UNL1        0.1417
     15 F         138.3662  140.1459  170.3647 F       1  UNL1       -0.2041
     16 C         139.9236  141.0465  168.4902 C.ar    1  UNL1        0.0484
     17 C         141.2376  141.6291  168.0614 C.ar    1  UNL1        0.0808
     18 C         138.5006  141.6404  160.9857 C.3     1  UNL1        0.0718
     19 N         138.5525  142.7801  160.0119 N.am    1  UNL1       -0.3025
     20 C         139.4783  142.7180  158.8333 C.2     1  UNL1        0.2458
     21 O         140.3522  141.5161  158.6285 O.2     1  UNL1       -0.2701
     22 H         137.9790  143.5689  160.1462 H       1  UNL1        0.1497
     23 C         139.5302  143.8577  157.8594 C.ar    1  UNL1        0.0534
     24 C         138.8785  143.7257  156.5149 C.ar    1  UNL1        0.0054
     25 C         138.9303  144.8654  155.5411 C.ar    1  UNL1        0.0115
     26 C         139.6340  146.1371  155.9117 C.ar    1  UNL1        0.0577
     27 CL        139.6859  147.2768  154.9379 Cl      1  UNL1       -0.0822
     28 C         140.2858  146.2692  157.2563 C.ar    1  UNL1        0.0115
     29 C         140.2340  145.1295  158.2301 C.ar    1  UNL1        0.0054
     30 C         138.3316  139.0538  160.8101 C.3     1  UNL1        0.0017
     31 C         137.7082  140.4096  160.6581 C.3     1  UNL1        0.0196
@<TRIPOS>BOND
     1    30    31    1
     2    18    31    1
     3    18    19    1
     4    19    20   am
     5    20    21    2
     6    20    23    1
     7    23    24   ar
     8    24    25   ar
     9    25    26   ar
    10    26    27    1
    11    26    28   ar
    12    28    29   ar
    13     1    18    1
    14     1     2    1
    15     2     3    1
    16     3     4    1
    17     4     7    1
    18     7     8   ar
    19     8     9    1
    20     8    10   ar
    21    10    11   ar
    22    11    12   ar
    23    12    13   ar
    24    13    14   ar
    25    14    15    1
    26    14    16   ar
    27    16    17   ar
    28     4     5    1
    29     6     5    1
    30    29    23   ar
    31     6     1    1
    32     6     2    1
    33    17     7   ar
    34    17    11   ar
    35    19    22    1
