@<TRIPOS>MOLECULE
*****
 35 38 0 0 0
SMALL
GASTEIGER

@<TRIPOS>ATOM
      1 C         140.8692  143.3025  163.0594 C.ar    1  UNL1        0.0005
      2 C         139.5213  143.0559  163.6696 C.ar    1  UNL1       -0.0003
      3 C         139.4126  142.6522  165.1101 C.ar    1  UNL1       -0.0034
      4 C         140.6519  142.4951  165.9406 C.ar    1  UNL1       -0.0103
      5 C         141.9998  142.7417  165.3304 C.ar    1  UNL1        0.0537
      6 CL        143.2391  142.5846  166.1607 Cl      1  UNL1       -0.0826
      7 C         142.1085  143.1454  163.8898 C.ar    1  UNL1        0.0111
      8 C         140.5432  142.0915  167.3811 C.3     1  UNL1        0.0430
      9 C         140.3875  143.1387  168.4437 C.3     1  UNL1        0.0733
     10 N         140.2788  142.7350  169.8843 N.3     1  UNL1       -0.2972
     11 C         140.3258  141.2842  170.2623 C.3     1  UNL1        0.0689
     12 C         140.4816  140.2370  169.1996 C.3     1  UNL1        0.0218
     13 C         140.5902  140.6406  167.7591 C.3     1  UNL1        0.0292
     14 H         139.3896  143.0997  170.2260 H       1  UNL1        0.1233
     15 C         140.7459  139.5935  166.6965 C.ar    1  UNL1       -0.0197
     16 C         142.1146  139.1250  166.3000 C.ar    1  UNL1       -0.0018
     17 C         142.2703  138.0778  165.2373 C.ar    1  UNL1        0.0316
     18 C         141.0573  137.4990  164.5713 C.ar    1  UNL1        0.1674
     19 F         141.2130  136.4518  163.5086 F       1  UNL1       -0.2018
     20 C         139.6886  137.9675  164.9678 C.ar    1  UNL1        0.1671
     21 F         138.4756  137.3887  164.3017 F       1  UNL1       -0.2018
     22 C         139.5329  139.0147  166.0304 C.ar    1  UNL1        0.0277
     23 C         141.3375  142.6864  160.5792 C.ar    1  UNL1       -0.0205
     24 C         141.4461  143.0901  159.1387 C.ar    1  UNL1       -0.0042
     25 C         141.1951  144.5135  158.7377 C.ar    1  UNL1       -0.0003
     26 C         140.8355  145.5333  159.7773 C.ar    1  UNL1       -0.0000
     27 C         140.7269  145.1296  161.2178 C.ar    1  UNL1       -0.0003
     28 C         140.9779  143.7061  161.6188 C.ar    1  UNL1       -0.0039
     29 C         141.5885  141.2629  160.9802 C.3     1  UNL1        0.0476
     30 C         142.9944  140.7530  161.0954 C.3     1  UNL1        0.0941
     31 C         145.2244  139.9935  164.2892 C.3     1  UNL1        0.0946
     32 C         144.7512  140.6047  163.0037 C.2     1  UNL1        0.2230
     33 O         145.5618  141.6789  162.3410 O.2     1  UNL1       -0.2751
     34 N         143.4675  140.1418  162.3809 N.am    1  UNL1       -0.3040
     35 H         142.9355  139.4368  162.8159 H       1  UNL1        0.1494
@<TRIPOS>BOND
     1    31    32    1
     2    32    33    2
     3    32    34   am
     4    34    30    1
     5    30    29    1
     6    29    23    1
     7    23    24   ar
     8    24    25   ar
     9    25    26   ar
    10    26    27   ar
    11    27    28   ar
    12    28     1    1
    13     1     2   ar
    14     2     3   ar
    15     3     4   ar
    16     8     4    1
    17     8     9    1
    18     9    10    1
    19    10    11    1
    20    11    12    1
    21    12    13    1
    22    13    15    1
    23    15    16   ar
    24    16    17   ar
    25    17    18   ar
    26    18    19    1
    27    18    20   ar
    28    20    21    1
    29    20    22   ar
    30     4     5   ar
    31     5     6    1
    32     5     7   ar
    33    28    23   ar
    34     7     1   ar
    35    13     8    1
    36    22    15   ar
    37    34    35    1
    38    10    14    1
@<TRIPOS>MOLECULE
*****
 35 38 0 0 0
SMALL
GASTEIGER

@<TRIPOS>ATOM
      1 C         140.5981  143.7488  164.0907 C.ar    1  UNL1        0.0005
      2 C         139.3765  143.7034  164.9601 C.ar    1  UNL1       -0.0003
      3 C         139.4699  143.1659  166.3573 C.ar    1  UNL1       -0.0034
      4 C         140.7849  142.6736  166.8852 C.ar    1  UNL1       -0.0103
      5 C         142.0064  142.7189  166.0158 C.ar    1  UNL1        0.0537
      6 CL        143.3213  142.2266  166.5437 Cl      1  UNL1       -0.0826
      7 C         141.9130  143.2565  164.6185 C.ar    1  UNL1        0.0111
      8 C         140.8783  142.1360  168.2824 C.3     1  UNL1        0.0430
      9 C         141.3346  143.0267  169.3997 C.3     1  UNL1        0.0733
     10 N         141.4280  142.4891  170.7970 N.3     1  UNL1       -0.2972
     11 C         141.0650  141.0609  171.0769 C.3     1  UNL1        0.0689
     12 C         140.6087  140.1702  169.9595 C.3     1  UNL1        0.0218
     13 C         140.5153  140.7077  168.5623 C.3     1  UNL1        0.0292
     14 H         140.8185  143.0667  171.3761 H       1  UNL1        0.1233
     15 C         140.0590  139.8171  167.4450 C.ar    1  UNL1       -0.0197
     16 C         138.6134  139.4321  167.3354 C.ar    1  UNL1       -0.0018
     17 C         138.1571  138.5413  166.2180 C.ar    1  UNL1        0.0316
     18 C         139.1464  138.0356  165.2103 C.ar    1  UNL1        0.1674
     19 F         138.6901  137.1449  164.0930 F       1  UNL1       -0.2018
     20 C         140.5920  138.4206  165.3199 C.ar    1  UNL1        0.1671
     21 F         141.5813  137.9149  164.3121 F       1  UNL1       -0.2018
     22 C         141.0483  139.3113  166.4372 C.ar    1  UNL1        0.0277
     23 C         140.8890  143.4214  161.5298 C.ar    1  UNL1       -0.0205
     24 C         140.7955  143.9591  160.1326 C.ar    1  UNL1       -0.0042
     25 C         140.3178  145.3616  159.8990 C.ar    1  UNL1       -0.0003
     26 C         139.9334  146.2266  161.0627 C.ar    1  UNL1       -0.0000
     27 C         140.0268  145.6889  162.4599 C.ar    1  UNL1       -0.0003
     28 C         140.5046  144.2864  162.6934 C.ar    1  UNL1       -0.0039
     29 C         141.3668  142.0189  161.7633 C.3     1  UNL1        0.0476
     30 C         142.6952  141.5793  161.2229 C.3     1  UNL1        0.0941
     31 C         145.8269  141.6712  163.6589 C.3     1  UNL1        0.0946
     32 C         144.7476  142.1230  162.7202 C.2     1  UNL1        0.2230
     33 O         144.6415  143.5701  162.3403 O.2     1  UNL1       -0.2751
     34 N         143.7744  141.1275  162.1615 N.am    1  UNL1       -0.3040
     35 H         143.8441  140.1777  162.4109 H       1  UNL1        0.1494
@<TRIPOS>BOND
     1    31    32    1
     2    32    33    2
     3    32    34   am
     4    34    30    1
     5    30    29    1
     6    29    23    1
     7    23    24   ar
     8    24    25   ar
     9    25    26   ar
    10    26    27   ar
    11    27    28   ar
    12    28     1    1
    13     1     2   ar
    14     2     3   ar
    15     3     4   ar
    16     8     4    1
    17     8     9    1
    18     9    10    1
    19    10    11    1
    20    11    12    1
    21    12    13    1
    22    13    15    1
    23    15    16   ar
    24    16    17   ar
    25    17    18   ar
    26    18    19    1
    27    18    20   ar
    28    20    21    1
    29    20    22   ar
    30     4     5   ar
    31     5     6    1
    32     5     7   ar
    33    28    23   ar
    34     7     1   ar
    35    13     8    1
    36    22    15   ar
    37    34    35    1
    38    10    14    1
@<TRIPOS>MOLECULE
*****
 35 38 0 0 0
SMALL
GASTEIGER

@<TRIPOS>ATOM
      1 C         140.7062  143.7993  164.1143 C.ar    1  UNL1        0.0005
      2 C         139.4743  143.7659  164.9695 C.ar    1  UNL1       -0.0003
      3 C         139.5437  143.2165  166.3635 C.ar    1  UNL1       -0.0034
      4 C         140.8451  142.7005  166.9024 C.ar    1  UNL1       -0.0103
      5 C         142.0770  142.7339  166.0473 C.ar    1  UNL1        0.0537
      6 CL        143.3783  142.2180  166.5861 Cl      1  UNL1       -0.0826
      7 C         142.0075  143.2834  164.6532 C.ar    1  UNL1        0.0111
      8 C         140.9145  142.1511  168.2964 C.3     1  UNL1        0.0430
      9 C         141.3618  143.0293  169.4272 C.3     1  UNL1        0.0733
     10 N         141.4312  142.4799  170.8213 N.3     1  UNL1       -0.2972
     11 C         141.0533  141.0524  171.0846 C.3     1  UNL1        0.0689
     12 C         140.6060  140.1742  169.9537 C.3     1  UNL1        0.0218
     13 C         140.5366  140.7236  168.5597 C.3     1  UNL1        0.0292
     14 H         140.8180  143.0576  171.3964 H       1  UNL1        0.1233
     15 C         140.0893  139.8454  167.4289 C.ar    1  UNL1       -0.0197
     16 C         138.6427  139.4714  167.2966 C.ar    1  UNL1       -0.0018
     17 C         138.1955  138.5932  166.1658 C.ar    1  UNL1        0.0316
     18 C         139.1948  138.0890  165.1672 C.ar    1  UNL1        0.1674
     19 F         138.7475  137.2108  164.0364 F       1  UNL1       -0.2018
     20 C         140.6414  138.4630  165.2995 C.ar    1  UNL1        0.1671
     21 F         141.6407  137.9587  164.3009 F       1  UNL1       -0.2018
     22 C         141.0887  139.3411  166.4303 C.ar    1  UNL1        0.0277
     23 C         141.2119  143.5671  161.5765 C.ar    1  UNL1       -0.0205
     24 C         141.1424  144.1165  160.1826 C.ar    1  UNL1       -0.0042
     25 C         140.4978  145.4476  159.9323 C.ar    1  UNL1       -0.0003
     26 C         139.9227  146.2293  161.0760 C.ar    1  UNL1       -0.0000
     27 C         139.9922  145.6799  162.4700 C.ar    1  UNL1       -0.0003
     28 C         140.6368  144.3488  162.7203 C.ar    1  UNL1       -0.0039
     29 C         141.8565  142.2360  161.8268 C.3     1  UNL1        0.0476
     30 C         141.0480  140.9778  161.7125 C.3     1  UNL1        0.0941
     31 C         137.4479  140.9096  163.3813 C.3     1  UNL1        0.0946
     32 C         138.5518  141.1832  162.4033 C.2     1  UNL1        0.2230
     33 O         138.2636  141.9357  161.1382 O.2     1  UNL1       -0.2751
     34 N         139.9441  140.7042  162.6905 N.am    1  UNL1       -0.3040
     35 H         140.1332  140.2103  163.5208 H       1  UNL1        0.1494
@<TRIPOS>BOND
     1    31    32    1
     2    32    33    2
     3    32    34   am
     4    34    30    1
     5    30    29    1
     6    29    23    1
     7    23    24   ar
     8    24    25   ar
     9    25    26   ar
    10    26    27   ar
    11    27    28   ar
    12    28     1    1
    13     1     2   ar
    14     2     3   ar
    15     3     4   ar
    16     8     4    1
    17     8     9    1
    18     9    10    1
    19    10    11    1
    20    11    12    1
    21    12    13    1
    22    13    15    1
    23    15    16   ar
    24    16    17   ar
    25    17    18   ar
    26    18    19    1
    27    18    20   ar
    28    20    21    1
    29    20    22   ar
    30     4     5   ar
    31     5     6    1
    32     5     7   ar
    33    28    23   ar
    34     7     1   ar
    35    13     8    1
    36    22    15   ar
    37    34    35    1
    38    10    14    1
@<TRIPOS>MOLECULE
*****
 35 38 0 0 0
SMALL
GASTEIGER

@<TRIPOS>ATOM
      1 C         142.0685  142.1004  166.1619 C.ar    1  UNL1        0.0005
      2 C         140.7170  142.6968  165.9016 C.ar    1  UNL1       -0.0003
      3 C         140.3869  143.2426  164.5441 C.ar    1  UNL1       -0.0034
      4 C         141.4083  143.1920  163.4466 C.ar    1  UNL1       -0.0103
      5 C         142.7598  142.5956  163.7069 C.ar    1  UNL1        0.0537
      6 CL        143.7812  142.5449  162.6096 Cl      1  UNL1       -0.0826
      7 C         143.0899  142.0498  165.0646 C.ar    1  UNL1        0.0111
      8 C         141.0782  143.7378  162.0891 C.3     1  UNL1        0.0430
      9 C         141.5812  145.0911  161.6822 C.3     1  UNL1        0.0733
     10 N         141.2511  145.6369  160.3245 N.3     1  UNL1       -0.2972
     11 C         140.4180  144.8295  159.3738 C.3     1  UNL1        0.0689
     12 C         139.9149  143.4761  159.7808 C.3     1  UNL1        0.0218
     13 C         140.2451  142.9303  161.1383 C.3     1  UNL1        0.0292
     14 H         142.1389  145.8189  159.8565 H       1  UNL1        0.1233
     15 C         139.7420  141.5771  161.5452 C.ar    1  UNL1       -0.0197
     16 C         138.3718  141.4334  162.1385 C.ar    1  UNL1       -0.0018
     17 C         137.8688  140.0800  162.5453 C.ar    1  UNL1        0.0316
     18 C         138.7360  138.8704  162.3589 C.ar    1  UNL1        0.1674
     19 F         138.2330  137.5171  162.7658 F       1  UNL1       -0.2018
     20 C         140.1062  139.0141  161.7657 C.ar    1  UNL1        0.1671
     21 F         140.9734  137.8044  161.5793 F       1  UNL1       -0.2018
     22 C         140.6092  140.3673  161.3588 C.ar    1  UNL1        0.0277
     23 C         142.2886  140.0820  167.7830 C.ar    1  UNL1       -0.0205
     24 C         142.6187  139.5363  169.1406 C.ar    1  UNL1       -0.0042
     25 C         143.0588  140.4631  170.2348 C.ar    1  UNL1       -0.0003
     26 C         143.1687  141.9357  169.9714 C.ar    1  UNL1       -0.0000
     27 C         142.8386  142.4814  168.6138 C.ar    1  UNL1       -0.0003
     28 C         142.3986  141.5546  167.5196 C.ar    1  UNL1       -0.0039
     29 C         141.8486  139.1552  166.6887 C.3     1  UNL1        0.0476
     30 C         142.8701  138.4233  165.8697 C.3     1  UNL1        0.0941
     31 C         143.9544  139.0097  162.0973 C.3     1  UNL1        0.0946
     32 C         144.0103  138.9488  163.5951 C.2     1  UNL1        0.2230
     33 O         145.2623  139.3524  164.3159 O.2     1  UNL1       -0.2751
     34 N         142.8142  138.4842  164.3720 N.am    1  UNL1       -0.3040
     35 H         141.9925  138.2193  163.8989 H       1  UNL1        0.1494
@<TRIPOS>BOND
     1    31    32    1
     2    32    33    2
     3    32    34   am
     4    34    30    1
     5    30    29    1
     6    29    23    1
     7    23    24   ar
     8    24    25   ar
     9    25    26   ar
    10    26    27   ar
    11    27    28   ar
    12    28     1    1
    13     1     2   ar
    14     2     3   ar
    15     3     4   ar
    16     8     4    1
    17     8     9    1
    18     9    10    1
    19    10    11    1
    20    11    12    1
    21    12    13    1
    22    13    15    1
    23    15    16   ar
    24    16    17   ar
    25    17    18   ar
    26    18    19    1
    27    18    20   ar
    28    20    21    1
    29    20    22   ar
    30     4     5   ar
    31     5     6    1
    32     5     7   ar
    33    28    23   ar
    34     7     1   ar
    35    13     8    1
    36    22    15   ar
    37    34    35    1
    38    10    14    1
@<TRIPOS>MOLECULE
*****
 35 38 0 0 0
SMALL
GASTEIGER

@<TRIPOS>ATOM
      1 C         140.3907  142.5599  165.8831 C.ar    1  UNL1        0.0005
      2 C         141.6693  142.2528  165.1614 C.ar    1  UNL1       -0.0003
      3 C         141.8332  142.6494  163.7241 C.ar    1  UNL1       -0.0034
      4 C         140.7184  143.3532  163.0085 C.ar    1  UNL1       -0.0103
      5 C         139.4399  143.6604  163.7301 C.ar    1  UNL1        0.0537
      6 CL        138.3252  144.3642  163.0146 Cl      1  UNL1       -0.0826
      7 C         139.2760  143.2637  165.1675 C.ar    1  UNL1        0.0111
      8 C         140.8824  143.7498  161.5712 C.3     1  UNL1        0.0430
      9 C         141.5463  145.0489  161.2227 C.3     1  UNL1        0.0733
     10 N         141.7102  145.4456  159.7854 N.3     1  UNL1       -0.2972
     11 C         141.2102  144.5432  158.6966 C.3     1  UNL1        0.0689
     12 C         140.5462  143.2440  159.0451 C.3     1  UNL1        0.0218
     13 C         140.3823  142.8474  160.4824 C.3     1  UNL1        0.0292
     14 H         142.7099  145.5722  159.6271 H       1  UNL1        0.1233
     15 C         139.7183  141.5483  160.8308 C.ar    1  UNL1       -0.0197
     16 C         138.2310  141.4924  161.0171 C.ar    1  UNL1       -0.0018
     17 C         137.5671  140.1932  161.3656 C.ar    1  UNL1        0.0316
     18 C         138.3904  138.9500  161.5278 C.ar    1  UNL1        0.1674
     19 F         137.7265  137.6508  161.8762 F       1  UNL1       -0.2018
     20 C         139.8778  139.0058  161.3415 C.ar    1  UNL1        0.1671
     21 F         140.7012  137.7625  161.5037 F       1  UNL1       -0.2018
     22 C         140.5417  140.3049  160.9930 C.ar    1  UNL1        0.0277
     23 C         139.7774  140.7753  167.6688 C.ar    1  UNL1       -0.0205
     24 C         139.6135  140.3787  169.1061 C.ar    1  UNL1       -0.0042
     25 C         139.8991  141.3701  170.1950 C.ar    1  UNL1       -0.0003
     26 C         140.3485  142.7580  169.8465 C.ar    1  UNL1       -0.0000
     27 C         140.5124  143.1546  168.4093 C.ar    1  UNL1       -0.0003
     28 C         140.2268  142.1633  167.3204 C.ar    1  UNL1       -0.0039
     29 C         139.4918  139.7839  166.5800 C.3     1  UNL1        0.0476
     30 C         140.5545  138.8174  166.1481 C.3     1  UNL1        0.0941
     31 C         143.2397  138.7886  163.2260 C.3     1  UNL1        0.0946
     32 C         142.6292  138.6713  164.5911 C.2     1  UNL1        0.2230
     33 O         143.4828  138.2907  165.7642 O.2     1  UNL1       -0.2751
     34 N         141.1650  138.9347  164.7830 N.am    1  UNL1       -0.3040
     35 H         140.6047  139.1845  164.0130 H       1  UNL1        0.1494
@<TRIPOS>BOND
     1    31    32    1
     2    32    33    2
     3    32    34   am
     4    34    30    1
     5    30    29    1
     6    29    23    1
     7    23    24   ar
     8    24    25   ar
     9    25    26   ar
    10    26    27   ar
    11    27    28   ar
    12    28     1    1
    13     1     2   ar
    14     2     3   ar
    15     3     4   ar
    16     8     4    1
    17     8     9    1
    18     9    10    1
    19    10    11    1
    20    11    12    1
    21    12    13    1
    22    13    15    1
    23    15    16   ar
    24    16    17   ar
    25    17    18   ar
    26    18    19    1
    27    18    20   ar
    28    20    21    1
    29    20    22   ar
    30     4     5   ar
    31     5     6    1
    32     5     7   ar
    33    28    23   ar
    34     7     1   ar
    35    13     8    1
    36    22    15   ar
    37    34    35    1
    38    10    14    1
@<TRIPOS>MOLECULE
*****
 35 38 0 0 0
SMALL
GASTEIGER

@<TRIPOS>ATOM
      1 C         140.5203  139.3726  163.3588 C.ar    1  UNL1        0.0005
      2 C         139.9101  139.8046  162.0584 C.ar    1  UNL1       -0.0003
      3 C         140.7913  140.2119  160.9150 C.ar    1  UNL1       -0.0034
      4 C         142.2829  140.1872  161.0719 C.ar    1  UNL1       -0.0103
      5 C         142.8932  139.7552  162.3723 C.ar    1  UNL1        0.0537
      6 CL        144.3847  139.7306  162.5292 Cl      1  UNL1       -0.0826
      7 C         142.0119  139.3479  163.5157 C.ar    1  UNL1        0.0111
      8 C         143.1642  140.5945  159.9285 C.3     1  UNL1        0.0430
      9 C         143.5146  139.6009  158.8608 C.3     1  UNL1        0.0733
     10 N         144.3959  140.0082  157.7173 N.3     1  UNL1       -0.2972
     11 C         144.9268  141.4090  157.6416 C.3     1  UNL1        0.0689
     12 C         144.5764  142.4026  158.7093 C.3     1  UNL1        0.0218
     13 C         143.6951  141.9953  159.8527 C.3     1  UNL1        0.0292
     14 H         143.8620  139.8490  156.8629 H       1  UNL1        0.1233
     15 C         143.3447  142.9889  160.9204 C.ar    1  UNL1       -0.0197
     16 C         144.2992  143.2453  162.0488 C.ar    1  UNL1       -0.0018
     17 C         143.9488  144.2390  163.1165 C.ar    1  UNL1        0.0316
     18 C         142.6439  144.9762  163.0558 C.ar    1  UNL1        0.1674
     19 F         142.2935  145.9698  164.1235 F       1  UNL1       -0.2018
     20 C         141.6894  144.7198  161.9275 C.ar    1  UNL1        0.1671
     21 F         140.3844  145.4570  161.8668 F       1  UNL1       -0.2018
     22 C         142.0398  143.7262  160.8598 C.ar    1  UNL1        0.0277
     23 C         139.2877  139.9592  165.5693 C.ar    1  UNL1       -0.0205
     24 C         138.4064  139.5518  166.7127 C.ar    1  UNL1       -0.0042
     25 C         137.8764  138.1507  166.7889 C.ar    1  UNL1       -0.0003
     26 C         138.2277  137.1568  165.7218 C.ar    1  UNL1       -0.0000
     27 C         139.1090  137.5641  164.5784 C.ar    1  UNL1       -0.0003
     28 C         139.6390  138.9653  164.5022 C.ar    1  UNL1       -0.0039
     29 C         139.8177  141.3603  165.4931 C.3     1  UNL1        0.0476
     30 C         138.9379  142.4690  164.9962 C.3     1  UNL1        0.0941
     31 C         138.1863  143.0125  161.1375 C.3     1  UNL1        0.0946
     32 C         138.0587  142.5305  162.5522 C.2     1  UNL1        0.2230
     33 O         136.9242  141.6280  162.9376 O.2     1  UNL1       -0.2751
     34 N         139.0656  142.9510  163.5815 N.am    1  UNL1       -0.3040
     35 H         139.8102  143.5433  163.3286 H       1  UNL1        0.1494
@<TRIPOS>BOND
     1    31    32    1
     2    32    33    2
     3    32    34   am
     4    34    30    1
     5    30    29    1
     6    29    23    1
     7    23    24   ar
     8    24    25   ar
     9    25    26   ar
    10    26    27   ar
    11    27    28   ar
    12    28     1    1
    13     1     2   ar
    14     2     3   ar
    15     3     4   ar
    16     8     4    1
    17     8     9    1
    18     9    10    1
    19    10    11    1
    20    11    12    1
    21    12    13    1
    22    13    15    1
    23    15    16   ar
    24    16    17   ar
    25    17    18   ar
    26    18    19    1
    27    18    20   ar
    28    20    21    1
    29    20    22   ar
    30     4     5   ar
    31     5     6    1
    32     5     7   ar
    33    28    23   ar
    34     7     1   ar
    35    13     8    1
    36    22    15   ar
    37    34    35    1
    38    10    14    1
@<TRIPOS>MOLECULE
*****
 35 38 0 0 0
SMALL
GASTEIGER

@<TRIPOS>ATOM
      1 C         140.4608  139.4162  163.2995 C.ar    1  UNL1        0.0005
      2 C         139.8514  139.9341  162.0305 C.ar    1  UNL1       -0.0003
      3 C         140.7327  140.3442  160.8881 C.ar    1  UNL1       -0.0034
      4 C         142.2235  140.2364  161.0146 C.ar    1  UNL1       -0.0103
      5 C         142.8329  139.7185  162.2836 C.ar    1  UNL1        0.0537
      6 CL        144.3236  139.6107  162.4102 Cl      1  UNL1       -0.0826
      7 C         141.9515  139.3084  163.4261 C.ar    1  UNL1        0.0111
      8 C         143.1047  140.6464  159.8722 C.3     1  UNL1        0.0430
      9 C         143.4236  139.6669  158.7819 C.3     1  UNL1        0.0733
     10 N         144.3049  140.0769  157.6394 N.3     1  UNL1       -0.2972
     11 C         144.8673  141.4665  157.5873 C.3     1  UNL1        0.0689
     12 C         144.5485  142.4461  158.6777 C.3     1  UNL1        0.0218
     13 C         143.6672  142.0360  159.8201 C.3     1  UNL1        0.0292
     14 H         143.7607  139.9474  156.7865 H       1  UNL1        0.1233
     15 C         143.3484  143.0155  160.9104 C.ar    1  UNL1       -0.0197
     16 C         144.3088  143.2131  162.0456 C.ar    1  UNL1       -0.0018
     17 C         143.9899  144.1927  163.1360 C.ar    1  UNL1        0.0316
     18 C         142.7106  144.9746  163.0911 C.ar    1  UNL1        0.1674
     19 F         142.3918  145.9542  164.1815 F       1  UNL1       -0.2018
     20 C         141.7502  144.7771  161.9560 C.ar    1  UNL1        0.1671
     21 F         140.4709  145.5591  161.9112 F       1  UNL1       -0.2018
     22 C         142.0691  143.7975  160.8656 C.ar    1  UNL1        0.0277
     23 C         139.1413  140.0231  165.4537 C.ar    1  UNL1       -0.0205
     24 C         138.2599  139.6131  166.5960 C.ar    1  UNL1       -0.0042
     25 C         137.8168  138.1860  166.7267 C.ar    1  UNL1       -0.0003
     26 C         138.2550  137.1690  165.7149 C.ar    1  UNL1       -0.0000
     27 C         139.1363  137.5791  164.5726 C.ar    1  UNL1       -0.0003
     28 C         139.5794  139.0062  164.4419 C.ar    1  UNL1       -0.0039
     29 C         139.5844  141.4502  165.3231 C.3     1  UNL1        0.0476
     30 C         140.7817  141.9365  166.0846 C.3     1  UNL1        0.0941
     31 C         140.4064  143.6295  169.6543 C.3     1  UNL1        0.0946
     32 C         140.5676  142.5830  168.5918 C.2     1  UNL1        0.2230
     33 O         140.6758  141.1366  168.9741 O.2     1  UNL1       -0.2751
     34 N         140.6205  142.9830  167.1471 N.am    1  UNL1       -0.3040
     35 H         140.5495  143.9323  166.8962 H       1  UNL1        0.1494
@<TRIPOS>BOND
     1    31    32    1
     2    32    33    2
     3    32    34   am
     4    34    30    1
     5    30    29    1
     6    29    23    1
     7    23    24   ar
     8    24    25   ar
     9    25    26   ar
    10    26    27   ar
    11    27    28   ar
    12    28     1    1
    13     1     2   ar
    14     2     3   ar
    15     3     4   ar
    16     8     4    1
    17     8     9    1
    18     9    10    1
    19    10    11    1
    20    11    12    1
    21    12    13    1
    22    13    15    1
    23    15    16   ar
    24    16    17   ar
    25    17    18   ar
    26    18    19    1
    27    18    20   ar
    28    20    21    1
    29    20    22   ar
    30     4     5   ar
    31     5     6    1
    32     5     7   ar
    33    28    23   ar
    34     7     1   ar
    35    13     8    1
    36    22    15   ar
    37    34    35    1
    38    10    14    1
@<TRIPOS>MOLECULE
*****
 35 38 0 0 0
SMALL
GASTEIGER

@<TRIPOS>ATOM
      1 C         139.4180  140.5164  162.4406 C.ar    1  UNL1        0.0005
      2 C         139.7979  139.1941  163.0383 C.ar    1  UNL1       -0.0003
      3 C         140.1120  139.0950  164.5016 C.ar    1  UNL1       -0.0034
      4 C         140.0462  140.3183  165.3674 C.ar    1  UNL1       -0.0103
      5 C         139.6663  141.6406  164.7697 C.ar    1  UNL1        0.0537
      6 CL        139.6006  142.8638  165.6353 Cl      1  UNL1       -0.0826
      7 C         139.3522  141.7396  163.3062 C.ar    1  UNL1        0.0111
      8 C         140.3603  140.2192  166.8307 C.3     1  UNL1        0.0430
      9 C         139.2838  139.8428  167.8050 C.3     1  UNL1        0.0733
     10 N         139.5979  139.7437  169.2685 N.3     1  UNL1       -0.2972
     11 C         140.9885  140.0210  169.7575 C.3     1  UNL1        0.0689
     12 C         142.0651  140.3974  168.7831 C.3     1  UNL1        0.0218
     13 C         141.7510  140.4964  167.3198 C.3     1  UNL1        0.0292
     14 H         139.3693  138.7918  169.5549 H       1  UNL1        0.1233
     15 C         142.8276  140.8728  166.3455 C.ar    1  UNL1       -0.0197
     16 C         143.4353  139.8270  165.4584 C.ar    1  UNL1       -0.0018
     17 C         144.5119  140.2035  164.4840 C.ar    1  UNL1        0.0316
     18 C         144.9807  141.6256  164.3968 C.ar    1  UNL1        0.1674
     19 F         146.0573  142.0020  163.4225 F       1  UNL1       -0.2018
     20 C         144.3730  142.6714  165.2839 C.ar    1  UNL1        0.1671
     21 F         144.8418  144.0936  165.1967 F       1  UNL1       -0.2018
     22 C         143.2964  142.2950  166.2582 C.ar    1  UNL1        0.0277
     23 C         140.1166  141.1870  160.0297 C.ar    1  UNL1       -0.0205
     24 C         139.8025  141.2860  158.5663 C.ar    1  UNL1       -0.0042
     25 C         138.4756  140.8135  158.0504 C.ar    1  UNL1       -0.0003
     26 C         137.4628  140.2420  158.9979 C.ar    1  UNL1       -0.0000
     27 C         137.7770  140.1430  160.4612 C.ar    1  UNL1       -0.0003
     28 C         139.1039  140.6155  160.9771 C.ar    1  UNL1       -0.0039
     29 C         141.4435  141.6594  160.5456 C.3     1  UNL1        0.0476
     30 C         141.7617  143.1251  160.5655 C.3     1  UNL1        0.0941
     31 C         142.1715  145.4032  163.7893 C.3     1  UNL1        0.0946
     32 C         142.5131  144.5779  162.5842 C.2     1  UNL1        0.2230
     33 O         143.9475  144.3800  162.1927 O.2     1  UNL1       -0.2751
     34 N         141.4201  143.9504  161.7706 N.am    1  UNL1       -0.3040
     35 H         140.4787  144.0803  162.0276 H       1  UNL1        0.1494
@<TRIPOS>BOND
     1    31    32    1
     2    32    33    2
     3    32    34   am
     4    34    30    1
     5    30    29    1
     6    29    23    1
     7    23    24   ar
     8    24    25   ar
     9    25    26   ar
    10    26    27   ar
    11    27    28   ar
    12    28     1    1
    13     1     2   ar
    14     2     3   ar
    15     3     4   ar
    16     8     4    1
    17     8     9    1
    18     9    10    1
    19    10    11    1
    20    11    12    1
    21    12    13    1
    22    13    15    1
    23    15    16   ar
    24    16    17   ar
    25    17    18   ar
    26    18    19    1
    27    18    20   ar
    28    20    21    1
    29    20    22   ar
    30     4     5   ar
    31     5     6    1
    32     5     7   ar
    33    28    23   ar
    34     7     1   ar
    35    13     8    1
    36    22    15   ar
    37    34    35    1
    38    10    14    1
@<TRIPOS>MOLECULE
*****
 35 38 0 0 0
SMALL
GASTEIGER

@<TRIPOS>ATOM
      1 C         141.5488  142.5565  166.7014 C.ar    1  UNL1        0.0005
      2 C         140.1404  142.7611  166.2276 C.ar    1  UNL1       -0.0003
      3 C         139.8830  143.3132  164.8568 C.ar    1  UNL1       -0.0034
      4 C         141.0340  143.6607  163.9599 C.ar    1  UNL1       -0.0103
      5 C         142.4424  143.4560  164.4337 C.ar    1  UNL1        0.0537
      6 CL        143.5934  143.8034  163.5369 Cl      1  UNL1       -0.0826
      7 C         142.6998  142.9039  165.8045 C.ar    1  UNL1        0.0111
      8 C         140.7766  144.2128  162.5892 C.3     1  UNL1        0.0430
      9 C         140.5914  145.6889  162.3978 C.3     1  UNL1        0.0733
     10 N         140.3340  146.2411  161.0271 N.3     1  UNL1       -0.2972
     11 C         140.2619  145.3170  159.8477 C.3     1  UNL1        0.0689
     12 C         140.4472  143.8408  160.0391 C.3     1  UNL1        0.0218
     13 C         140.7046  143.2887  161.4098 C.3     1  UNL1        0.0292
     14 H         141.0809  146.9081  160.8333 H       1  UNL1        0.1233
     15 C         140.8898  141.8126  161.6011 C.ar    1  UNL1       -0.0197
     16 C         139.7139  140.9476  161.9461 C.ar    1  UNL1       -0.0018
     17 C         139.8993  139.4714  162.1374 C.ar    1  UNL1        0.0316
     18 C         141.2605  138.8602  161.9838 C.ar    1  UNL1        0.1674
     19 F         141.4458  137.3840  162.1751 F       1  UNL1       -0.2018
     20 C         142.4364  139.7253  161.6388 C.ar    1  UNL1        0.1671
     21 F         143.7976  139.1141  161.4852 F       1  UNL1       -0.2018
     22 C         142.2511  141.2014  161.4475 C.ar    1  UNL1        0.0277
     23 C         142.4307  140.6498  168.2301 C.ar    1  UNL1       -0.0205
     24 C         142.6880  140.0977  169.6008 C.ar    1  UNL1       -0.0042
     25 C         142.3207  140.9002  170.8137 C.ar    1  UNL1       -0.0003
     26 C         141.6962  142.2548  170.6558 C.ar    1  UNL1       -0.0000
     27 C         141.4388  142.8069  169.2851 C.ar    1  UNL1       -0.0003
     28 C         141.8061  142.0043  168.0722 C.ar    1  UNL1       -0.0039
     29 C         142.7980  139.8472  167.0172 C.3     1  UNL1        0.0476
     30 C         141.8679  138.7849  166.5110 C.3     1  UNL1        0.0941
     31 C         138.1822  139.7943  165.4402 C.3     1  UNL1        0.0946
     32 C         139.3576  139.4181  166.2927 C.2     1  UNL1        0.2230
     33 O         139.1982  139.2987  167.7794 O.2     1  UNL1       -0.2751
     34 N         140.6925  139.1611  165.6585 N.am    1  UNL1       -0.3040
     35 H         140.7971  139.2395  164.6827 H       1  UNL1        0.1494
@<TRIPOS>BOND
     1    31    32    1
     2    32    33    2
     3    32    34   am
     4    34    30    1
     5    30    29    1
     6    29    23    1
     7    23    24   ar
     8    24    25   ar
     9    25    26   ar
    10    26    27   ar
    11    27    28   ar
    12    28     1    1
    13     1     2   ar
    14     2     3   ar
    15     3     4   ar
    16     8     4    1
    17     8     9    1
    18     9    10    1
    19    10    11    1
    20    11    12    1
    21    12    13    1
    22    13    15    1
    23    15    16   ar
    24    16    17   ar
    25    17    18   ar
    26    18    19    1
    27    18    20   ar
    28    20    21    1
    29    20    22   ar
    30     4     5   ar
    31     5     6    1
    32     5     7   ar
    33    28    23   ar
    34     7     1   ar
    35    13     8    1
    36    22    15   ar
    37    34    35    1
    38    10    14    1
