@<TRIPOS>MOLECULE
*****
 31 34 0 0 0
SMALL
GASTEIGER

@<TRIPOS>ATOM
      1 C         141.2821  143.8263  163.2629 C.3     1  UNL1        0.1166
      2 C         142.0733  143.3966  164.4626 C.ar    1  UNL1       -0.0162
      3 C         141.7075  142.5793  165.6660 C.ar    1  UNL1       -0.0041
      4 C         142.7319  142.3072  166.7274 C.ar    1  UNL1       -0.0003
      5 C         144.1221  142.8524  166.5853 C.ar    1  UNL1       -0.0003
      6 C         144.4879  143.6696  165.3819 C.ar    1  UNL1       -0.0045
      7 C         143.4635  143.9418  164.3206 C.ar    1  UNL1       -0.0240
      8 C         143.5314  144.7084  163.0331 C.3     1  UNL1        0.0464
      9 C         142.1833  144.6371  162.3794 C.3     1  UNL1        0.0888
     10 N         139.4864  142.4423  161.9939 N.am    1  UNL1       -0.3026
     11 C         139.8424  143.5022  162.9939 C.2     1  UNL1        0.2278
     12 O         138.7588  144.2378  163.7249 O.2     1  UNL1       -0.2747
     13 H         140.1977  141.9594  161.5141 H       1  UNL1        0.1495
     14 C         138.0468  142.1181  161.7249 C.3     1  UNL1        0.1067
     15 C         137.2777  141.2640  162.6887 C.3     1  UNL1        0.0937
     16 C         138.2856  140.5360  164.9700 C.3     1  UNL1        0.0897
     17 N         137.9946  140.2475  163.5270 N.3     1  UNL1       -0.2689
     18 C         138.4205  138.9425  162.9224 C.3     1  UNL1        0.0897
     19 N         141.8030  145.2660  161.0718 N.am    1  UNL1       -0.3001
     20 C         141.6185  144.4106  159.8536 C.2     1  UNL1        0.2636
     21 O         141.8142  142.9260  159.9429 O.2     1  UNL1       -0.2685
     22 H         141.6745  146.2404  161.0131 H       1  UNL1        0.1498
     23 C         141.2382  145.0395  158.5460 C.2     1  UNL1        0.1341
     24 C         141.9175  144.8127  157.2279 C.2     1  UNL1        0.0249
     25 C         141.2110  145.6388  156.1942 C.2     1  UNL1        0.0155
     26 C         141.4396  145.8147  154.7222 C.2     1  UNL1        0.0009
     27 C         140.5524  146.7281  153.9294 C.2     1  UNL1       -0.0041
     28 C         139.4366  147.4655  154.6086 C.2     1  UNL1       -0.0198
     29 C         139.2080  147.2895  156.0806 C.3     1  UNL1        0.0717
     30 C         140.0952  146.3761  156.8734 C.2     1  UNL1        0.0635
     31 N         140.1120  146.0058  158.3268 N.2     1  UNL1       -0.2448
@<TRIPOS>BOND
     1    16    17    1
     2    17    18    1
     3    17    15    1
     4    15    14    1
     5    14    10    1
     6    10    11   am
     7    11    12    2
     8     1    11    1
     9     1     2    1
    10     2     3   ar
    11     3     4   ar
    12     4     5   ar
    13     5     6   ar
    14     6     7   ar
    15     7     8    1
    16     8     9    1
    17     9    19    1
    18    19    20   am
    19    20    21    2
    20    20    23    1
    21    23    24    2
    22    24    25    1
    23    25    26    2
    24    26    27    1
    25    27    28    2
    26    28    29    1
    27    29    30    1
    28    30    31    2
    29     9     1    1
    30    31    23    1
    31     7     2   ar
    32    30    25    1
    33    10    13    1
    34    19    22    1
@<TRIPOS>MOLECULE
*****
 31 34 0 0 0
SMALL
GASTEIGER

@<TRIPOS>ATOM
      1 C         140.4869  141.8967  165.8821 C.3     1  UNL1        0.1166
      2 C         140.3178  141.9473  167.3716 C.ar    1  UNL1       -0.0162
      3 C         140.6204  143.0154  168.3804 C.ar    1  UNL1       -0.0041
      4 C         140.3386  142.7756  169.8340 C.ar    1  UNL1       -0.0003
      5 C         139.7543  141.4677  170.2789 C.ar    1  UNL1       -0.0003
      6 C         139.4517  140.3996  169.2701 C.ar    1  UNL1       -0.0045
      7 C         139.7334  140.6394  167.8165 C.ar    1  UNL1       -0.0240
      8 C         139.5414  139.7805  166.6019 C.3     1  UNL1        0.0464
      9 C         140.0071  140.5575  165.4063 C.3     1  UNL1        0.0888
     10 N         142.4445  142.9048  164.5029 N.am    1  UNL1       -0.3026
     11 C         141.0390  142.9928  165.0197 C.2     1  UNL1        0.2278
     12 O         140.1857  144.1769  164.6739 O.2     1  UNL1       -0.2747
     13 H         143.0046  142.1276  164.7298 H       1  UNL1        0.1495
     14 C         142.9965  144.0009  163.6405 C.3     1  UNL1        0.1067
     15 C         144.3198  143.8229  162.9570 C.3     1  UNL1        0.0937
     16 C         145.7450  141.7299  163.5388 C.3     1  UNL1        0.0897
     17 N         144.8071  142.4466  162.6131 N.3     1  UNL1       -0.2689
     18 C         144.3566  141.7869  161.3436 C.3     1  UNL1        0.0897
     19 N         139.9951  140.0793  163.9846 N.am    1  UNL1       -0.3001
     20 C         141.2820  139.7185  163.3038 C.2     1  UNL1        0.2636
     21 O         142.5811  139.8360  164.0446 O.2     1  UNL1       -0.2685
     22 H         139.1425  140.0022  163.4984 H       1  UNL1        0.1498
     23 C         141.2700  139.2403  161.8821 C.2     1  UNL1        0.1341
     24 C         142.4330  138.6511  161.1402 C.2     1  UNL1        0.0249
     25 C         141.9746  138.3140  159.7522 C.2     1  UNL1        0.0155
     26 C         142.6873  137.7095  158.5790 C.2     1  UNL1        0.0009
     27 C         141.9537  137.4858  157.2899 C.2     1  UNL1       -0.0041
     28 C         140.5075  137.8666  157.1740 C.2     1  UNL1       -0.0198
     29 C         139.7948  138.4711  158.3473 C.3     1  UNL1        0.0717
     30 C         140.5284  138.6948  159.6364 C.2     1  UNL1        0.0635
     31 N         140.0929  139.2673  160.9527 N.2     1  UNL1       -0.2448
@<TRIPOS>BOND
     1    16    17    1
     2    17    18    1
     3    17    15    1
     4    15    14    1
     5    14    10    1
     6    10    11   am
     7    11    12    2
     8     1    11    1
     9     1     2    1
    10     2     3   ar
    11     3     4   ar
    12     4     5   ar
    13     5     6   ar
    14     6     7   ar
    15     7     8    1
    16     8     9    1
    17     9    19    1
    18    19    20   am
    19    20    21    2
    20    20    23    1
    21    23    24    2
    22    24    25    1
    23    25    26    2
    24    26    27    1
    25    27    28    2
    26    28    29    1
    27    29    30    1
    28    30    31    2
    29     9     1    1
    30    31    23    1
    31     7     2   ar
    32    30    25    1
    33    10    13    1
    34    19    22    1
@<TRIPOS>MOLECULE
*****
 31 34 0 0 0
SMALL
GASTEIGER

@<TRIPOS>ATOM
      1 C         142.8536  141.4881  166.1455 C.3     1  UNL1        0.1166
      2 C         142.8706  141.2643  167.6286 C.ar    1  UNL1       -0.0162
      3 C         143.1214  142.1915  168.7807 C.ar    1  UNL1       -0.0041
      4 C         143.0711  141.6713  170.1867 C.ar    1  UNL1       -0.0003
      5 C         142.7701  140.2239  170.4405 C.ar    1  UNL1       -0.0003
      6 C         142.5193  139.2967  169.2884 C.ar    1  UNL1       -0.0045
      7 C         142.5696  139.8170  167.8824 C.ar    1  UNL1       -0.0240
      8 C         142.3665  139.1463  166.5562 C.3     1  UNL1        0.0464
      9 C         142.5420  140.1791  165.4827 C.3     1  UNL1        0.0888
     10 N         141.9958  143.4633  164.6918 N.am    1  UNL1       -0.3026
     11 C         143.1041  142.7921  165.4477 C.2     1  UNL1        0.2278
     12 O         144.4628  143.4249  165.5057 O.2     1  UNL1       -0.2747
     13 H         141.1040  143.0480  164.6536 H       1  UNL1        0.1495
     14 C         142.2463  144.7673  163.9940 C.3     1  UNL1        0.1067
     15 C         142.0787  144.8663  162.5067 C.3     1  UNL1        0.0937
     16 C         144.3310  143.6678  162.0160 C.3     1  UNL1        0.0897
     17 N         142.9388  144.0386  161.5983 N.3     1  UNL1       -0.2689
     18 C         142.4068  143.5817  160.2724 C.3     1  UNL1        0.0897
     19 N         142.4262  139.9442  164.0057 N.am    1  UNL1       -0.3001
     20 C         143.6631  139.7808  163.1731 C.2     1  UNL1        0.2636
     21 O         145.0159  139.8523  163.8174 O.2     1  UNL1       -0.2685
     22 H         141.5384  139.8972  163.5828 H       1  UNL1        0.1498
     23 C         143.5474  139.5459  161.6961 C.2     1  UNL1        0.1341
     24 C         142.9402  138.3413  161.0398 C.2     1  UNL1        0.0249
     25 C         143.0361  138.5252  159.5542 C.2     1  UNL1        0.0155
     26 C         142.6027  137.6627  158.4061 C.2     1  UNL1        0.0009
     27 C         142.8356  138.1183  156.9961 C.2     1  UNL1       -0.0041
     28 C         143.5019  139.4365  156.7342 C.2     1  UNL1       -0.0198
     29 C         143.9352  140.2990  157.8823 C.3     1  UNL1        0.0717
     30 C         143.7023  139.8434  159.2923 C.2     1  UNL1        0.0635
     31 N         144.0183  140.4741  160.6161 N.2     1  UNL1       -0.2448
@<TRIPOS>BOND
     1    16    17    1
     2    17    18    1
     3    17    15    1
     4    15    14    1
     5    14    10    1
     6    10    11   am
     7    11    12    2
     8     1    11    1
     9     1     2    1
    10     2     3   ar
    11     3     4   ar
    12     4     5   ar
    13     5     6   ar
    14     6     7   ar
    15     7     8    1
    16     8     9    1
    17     9    19    1
    18    19    20   am
    19    20    21    2
    20    20    23    1
    21    23    24    2
    22    24    25    1
    23    25    26    2
    24    26    27    1
    25    27    28    2
    26    28    29    1
    27    29    30    1
    28    30    31    2
    29     9     1    1
    30    31    23    1
    31     7     2   ar
    32    30    25    1
    33    10    13    1
    34    19    22    1
@<TRIPOS>MOLECULE
*****
 31 34 0 0 0
SMALL
GASTEIGER

@<TRIPOS>ATOM
      1 C         141.8943  140.3077  165.9950 C.3     1  UNL1        0.1166
      2 C         141.6811  140.0400  167.4555 C.ar    1  UNL1       -0.0162
      3 C         142.5856  139.4882  168.5172 C.ar    1  UNL1       -0.0041
      4 C         142.0841  139.3307  169.9221 C.ar    1  UNL1       -0.0003
      5 C         140.6781  139.7250  170.2652 C.ar    1  UNL1       -0.0003
      6 C         139.7736  140.2768  169.2034 C.ar    1  UNL1       -0.0045
      7 C         140.2751  140.4343  167.7986 C.ar    1  UNL1       -0.0240
      8 C         139.6194  140.9456  166.5501 C.3     1  UNL1        0.0464
      9 C         140.6201  140.8674  165.4355 C.3     1  UNL1        0.0888
     10 N         144.0645  141.2047  164.8834 N.am    1  UNL1       -0.3026
     11 C         143.1596  140.0592  165.2287 C.2     1  UNL1        0.2278
     12 O         143.5201  138.6655  164.8076 O.2     1  UNL1       -0.2747
     13 H         143.8280  142.1195  165.1597 H       1  UNL1        0.1495
     14 C         145.3299  140.9562  164.1170 C.3     1  UNL1        0.1067
     15 C         145.6680  141.8097  162.9308 C.3     1  UNL1        0.0937
     16 C         143.7955  141.8978  161.1317 C.3     1  UNL1        0.0897
     17 N         144.5860  142.5654  162.2178 N.3     1  UNL1       -0.2689
     18 C         144.2945  143.9887  162.5910 C.3     1  UNL1        0.0897
     19 N         140.3874  141.2769  164.0113 N.am    1  UNL1       -0.3001
     20 C         140.7318  142.6669  163.5648 C.2     1  UNL1        0.2636
     21 O         141.3089  143.6473  164.5425 O.2     1  UNL1       -0.2685
     22 H         140.0087  140.6334  163.3697 H       1  UNL1        0.1498
     23 C         140.4992  143.0764  162.1407 C.2     1  UNL1        0.1341
     24 C         139.8503  142.2403  161.0776 C.2     1  UNL1        0.0249
     25 C         139.8247  143.0412  159.8095 C.2     1  UNL1        0.0155
     26 C         139.3067  142.7304  158.4365 C.2     1  UNL1        0.0009
     27 C         139.4217  143.7505  157.3429 C.2     1  UNL1       -0.0041
     28 C         140.0547  145.0814  157.6222 C.2     1  UNL1       -0.0198
     29 C         140.5726  145.3922  158.9952 C.3     1  UNL1        0.0717
     30 C         140.4576  144.3721  160.0888 C.2     1  UNL1        0.0635
     31 N         140.8745  144.3938  161.5296 N.2     1  UNL1       -0.2448
@<TRIPOS>BOND
     1    16    17    1
     2    17    18    1
     3    17    15    1
     4    15    14    1
     5    14    10    1
     6    10    11   am
     7    11    12    2
     8     1    11    1
     9     1     2    1
    10     2     3   ar
    11     3     4   ar
    12     4     5   ar
    13     5     6   ar
    14     6     7   ar
    15     7     8    1
    16     8     9    1
    17     9    19    1
    18    19    20   am
    19    20    21    2
    20    20    23    1
    21    23    24    2
    22    24    25    1
    23    25    26    2
    24    26    27    1
    25    27    28    2
    26    28    29    1
    27    29    30    1
    28    30    31    2
    29     9     1    1
    30    31    23    1
    31     7     2   ar
    32    30    25    1
    33    10    13    1
    34    19    22    1
@<TRIPOS>MOLECULE
*****
 31 34 0 0 0
SMALL
GASTEIGER

@<TRIPOS>ATOM
      1 C         142.2208  142.0861  166.1678 C.3     1  UNL1        0.1166
      2 C         142.0912  142.1398  167.6612 C.ar    1  UNL1       -0.0162
      3 C         142.9937  141.6726  168.7645 C.ar    1  UNL1       -0.0041
      4 C         142.5901  141.8660  170.1961 C.ar    1  UNL1       -0.0003
      5 C         141.2840  142.5265  170.5245 C.ar    1  UNL1       -0.0003
      6 C         140.3815  142.9937  169.4213 C.ar    1  UNL1       -0.0045
      7 C         140.7851  142.8003  167.9896 C.ar    1  UNL1       -0.0240
      8 C         140.1075  143.1548  166.6992 C.3     1  UNL1        0.0464
      9 C         140.9948  142.7134  165.5732 C.3     1  UNL1        0.0888
     10 N         144.3423  142.4146  164.7044 N.am    1  UNL1       -0.3026
     11 C         143.3739  141.5067  165.4032 C.2     1  UNL1        0.2278
     12 O         143.5588  140.0197  165.3373 O.2     1  UNL1       -0.2747
     13 H         144.2211  143.3906  164.7477 H       1  UNL1        0.1495
     14 C         145.4955  141.8352  163.9398 C.3     1  UNL1        0.1067
     15 C         145.5081  141.8966  162.4412 C.3     1  UNL1        0.0937
     16 C         144.2091  139.6974  161.9650 C.3     1  UNL1        0.0897
     17 N         144.4830  141.1384  161.6510 N.3     1  UNL1       -0.2689
     18 C         143.7318  141.8213  160.5467 C.3     1  UNL1        0.0897
     19 N         140.7068  142.8715  164.1096 N.am    1  UNL1       -0.3001
     20 C         141.4244  143.9204  163.3130 C.2     1  UNL1        0.2636
     21 O         142.4302  144.8114  163.9800 O.2     1  UNL1       -0.2685
     22 H         140.0467  142.2868  163.6719 H       1  UNL1        0.1498
     23 C         141.1363  144.0785  161.8495 C.2     1  UNL1        0.1341
     24 C         140.1128  143.3127  161.0645 C.2     1  UNL1        0.0249
     25 C         140.1651  143.7911  159.6438 C.2     1  UNL1        0.0155
     26 C         139.3878  143.3973  158.4229 C.2     1  UNL1        0.0009
     27 C         139.6662  144.0649  157.1089 C.2     1  UNL1       -0.0041
     28 C         140.7220  145.1264  157.0158 C.2     1  UNL1       -0.0198
     29 C         141.4993  145.5202  158.2366 C.3     1  UNL1        0.0717
     30 C         141.2209  144.8525  159.5507 C.2     1  UNL1        0.0635
     31 N         141.8211  145.0302  160.9138 N.2     1  UNL1       -0.2448
@<TRIPOS>BOND
     1    16    17    1
     2    17    18    1
     3    17    15    1
     4    15    14    1
     5    14    10    1
     6    10    11   am
     7    11    12    2
     8     1    11    1
     9     1     2    1
    10     2     3   ar
    11     3     4   ar
    12     4     5   ar
    13     5     6   ar
    14     6     7   ar
    15     7     8    1
    16     8     9    1
    17     9    19    1
    18    19    20   am
    19    20    21    2
    20    20    23    1
    21    23    24    2
    22    24    25    1
    23    25    26    2
    24    26    27    1
    25    27    28    2
    26    28    29    1
    27    29    30    1
    28    30    31    2
    29     9     1    1
    30    31    23    1
    31     7     2   ar
    32    30    25    1
    33    10    13    1
    34    19    22    1
@<TRIPOS>MOLECULE
*****
 31 34 0 0 0
SMALL
GASTEIGER

@<TRIPOS>ATOM
      1 C         142.4214  142.3454  166.3041 C.3     1  UNL1        0.1166
      2 C         142.2503  142.3318  167.7942 C.ar    1  UNL1       -0.0162
      3 C         143.2430  142.3042  168.9183 C.ar    1  UNL1       -0.0041
      4 C         142.7658  142.2960  170.3403 C.ar    1  UNL1       -0.0003
      5 C         141.2958  142.3154  170.6383 C.ar    1  UNL1       -0.0003
      6 C         140.3031  142.3431  169.5142 C.ar    1  UNL1       -0.0045
      7 C         140.7803  142.3512  168.0922 C.ar    1  UNL1       -0.0240
      8 C         140.0430  142.3769  166.7862 C.3     1  UNL1        0.0464
      9 C         141.0572  142.3733  165.6810 C.3     1  UNL1        0.0888
     10 N         144.1049  141.1474  164.7290 N.am    1  UNL1       -0.3026
     11 C         143.7275  142.3333  165.5665 C.2     1  UNL1        0.2278
     12 O         144.6561  143.5069  165.6663 O.2     1  UNL1       -0.2747
     13 H         143.4954  140.3770  164.6635 H       1  UNL1        0.1495
     14 C         145.4110  141.1353  163.9914 C.3     1  UNL1        0.1067
     15 C         145.5310  141.8302  162.6676 C.3     1  UNL1        0.0937
     16 C         144.1428  143.9960  162.3032 C.3     1  UNL1        0.0897
     17 N         144.3417  142.5266  162.0756 N.3     1  UNL1       -0.2689
     18 C         143.3512  141.7539  161.2560 C.3     1  UNL1        0.0897
     19 N         140.7595  142.3940  164.2110 N.am    1  UNL1       -0.3001
     20 C         140.5859  143.7029  163.4993 C.2     1  UNL1        0.2636
     21 O         140.7100  144.9912  164.2576 O.2     1  UNL1       -0.2685
     22 H         140.6781  141.5484  163.7133 H       1  UNL1        0.1498
     23 C         140.2883  143.7235  162.0293 C.2     1  UNL1        0.1341
     24 C         139.4175  142.7495  161.2922 C.2     1  UNL1        0.0249
     25 C         139.4002  143.1459  159.8456 C.2     1  UNL1        0.0155
     26 C         138.7124  142.5543  158.6511 C.2     1  UNL1        0.0009
     27 C         138.8846  143.1817  157.2995 C.2     1  UNL1       -0.0041
     28 C         139.7446  144.4006  157.1425 C.2     1  UNL1       -0.0198
     29 C         140.4324  144.9921  158.3370 C.3     1  UNL1        0.0717
     30 C         140.2602  144.3648  159.6886 C.2     1  UNL1        0.0635
     31 N         140.8090  144.7218  161.0382 N.2     1  UNL1       -0.2448
@<TRIPOS>BOND
     1    16    17    1
     2    17    18    1
     3    17    15    1
     4    15    14    1
     5    14    10    1
     6    10    11   am
     7    11    12    2
     8     1    11    1
     9     1     2    1
    10     2     3   ar
    11     3     4   ar
    12     4     5   ar
    13     5     6   ar
    14     6     7   ar
    15     7     8    1
    16     8     9    1
    17     9    19    1
    18    19    20   am
    19    20    21    2
    20    20    23    1
    21    23    24    2
    22    24    25    1
    23    25    26    2
    24    26    27    1
    25    27    28    2
    26    28    29    1
    27    29    30    1
    28    30    31    2
    29     9     1    1
    30    31    23    1
    31     7     2   ar
    32    30    25    1
    33    10    13    1
    34    19    22    1
@<TRIPOS>MOLECULE
*****
 31 34 0 0 0
SMALL
GASTEIGER

@<TRIPOS>ATOM
      1 C         140.0679  140.7996  166.3646 C.3     1  UNL1        0.1166
      2 C         140.0998  141.1458  167.8237 C.ar    1  UNL1       -0.0162
      3 C         139.9873  140.3014  169.0583 C.ar    1  UNL1       -0.0041
      4 C         140.0561  140.9411  170.4133 C.ar    1  UNL1       -0.0003
      5 C         140.2373  142.4252  170.5337 C.ar    1  UNL1       -0.0003
      6 C         140.3498  143.2697  169.2991 C.ar    1  UNL1       -0.0045
      7 C         140.2811  142.6299  167.9441 C.ar    1  UNL1       -0.0240
      8 C         140.3611  143.2009  166.5594 C.3     1  UNL1        0.0464
      9 C         140.2294  142.0698  165.5831 C.3     1  UNL1        0.0888
     10 N         141.0446  138.7730  165.0649 N.am    1  UNL1       -0.3026
     11 C         139.9033  139.4246  165.7881 C.2     1  UNL1        0.2278
     12 O         138.5976  138.7012  165.9347 O.2     1  UNL1       -0.2747
     13 H         141.9017  139.2478  164.9686 H       1  UNL1        0.1495
     14 C         140.8801  137.3980  164.4884 C.3     1  UNL1        0.1067
     15 C         140.9481  137.1942  163.0039 C.3     1  UNL1        0.0937
     16 C         140.4467  138.5393  160.8383 C.3     1  UNL1        0.0897
     17 N         139.9709  137.8926  162.1054 N.3     1  UNL1       -0.2689
     18 C         138.5178  137.9444  162.4741 C.3     1  UNL1        0.0897
     19 N         140.2546  142.1880  164.0880 N.am    1  UNL1       -0.3001
     20 C         139.0379  142.6665  163.3528 C.2     1  UNL1        0.2636
     21 O         137.7958  143.0269  164.1128 O.2     1  UNL1       -0.2685
     22 H         141.0698  141.9514  163.5892 H       1  UNL1        0.1498
     23 C         139.0632  142.7847  161.8577 C.2     1  UNL1        0.1341
     24 C         139.8878  143.7541  161.0637 C.2     1  UNL1        0.0249
     25 C         139.6025  143.5227  159.6093 C.2     1  UNL1        0.0155
     26 C         140.1248  144.1813  158.3670 C.2     1  UNL1        0.0009
     27 C         139.6463  143.7275  157.0198 C.2     1  UNL1       -0.0041
     28 C         138.6454  142.6151  156.9149 C.2     1  UNL1       -0.0198
     29 C         138.1231  141.9566  158.1573 C.3     1  UNL1        0.0717
     30 C         138.6017  142.4104  159.5045 C.2     1  UNL1        0.0635
     31 N         138.2683  141.9543  160.8941 N.2     1  UNL1       -0.2448
@<TRIPOS>BOND
     1    16    17    1
     2    17    18    1
     3    17    15    1
     4    15    14    1
     5    14    10    1
     6    10    11   am
     7    11    12    2
     8     1    11    1
     9     1     2    1
    10     2     3   ar
    11     3     4   ar
    12     4     5   ar
    13     5     6   ar
    14     6     7   ar
    15     7     8    1
    16     8     9    1
    17     9    19    1
    18    19    20   am
    19    20    21    2
    20    20    23    1
    21    23    24    2
    22    24    25    1
    23    25    26    2
    24    26    27    1
    25    27    28    2
    26    28    29    1
    27    29    30    1
    28    30    31    2
    29     9     1    1
    30    31    23    1
    31     7     2   ar
    32    30    25    1
    33    10    13    1
    34    19    22    1
@<TRIPOS>MOLECULE
*****
 31 34 0 0 0
SMALL
GASTEIGER

@<TRIPOS>ATOM
      1 C         140.3030  139.5337  161.3292 C.3     1  UNL1        0.1166
      2 C         140.9535  138.9472  160.1115 C.ar    1  UNL1       -0.0162
      3 C         140.6406  139.0684  158.6495 C.ar    1  UNL1       -0.0041
      4 C         141.4863  138.3510  157.6396 C.ar    1  UNL1       -0.0003
      5 C         142.6449  137.5123  158.0915 C.ar    1  UNL1       -0.0003
      6 C         142.9578  137.3910  159.5535 C.ar    1  UNL1       -0.0045
      7 C         142.1121  138.1085  160.5634 C.ar    1  UNL1       -0.0240
      8 C         142.1776  138.1767  162.0605 C.3     1  UNL1        0.0464
      9 C         141.0595  139.0576  162.5337 C.3     1  UNL1        0.0888
     10 N         139.2835  141.9149  161.5324 N.am    1  UNL1       -0.3026
     11 C         139.1061  140.4378  161.3403 C.2     1  UNL1        0.2278
     12 O         137.7317  139.8649  161.1594 O.2     1  UNL1       -0.2747
     13 H         140.1856  142.2910  161.6511 H       1  UNL1        0.1495
     14 C         138.0866  142.8189  161.5435 C.3     1  UNL1        0.1067
     15 C         137.7339  143.5809  162.7864 C.3     1  UNL1        0.0937
     16 C         138.8333  144.8168  164.7900 C.3     1  UNL1        0.0897
     17 N         138.6656  144.6331  163.3107 N.3     1  UNL1       -0.2689
     18 C         139.4296  145.5017  162.3557 C.3     1  UNL1        0.0897
     19 N         140.7519  139.4018  163.9609 N.am    1  UNL1       -0.3001
     20 C         141.0285  140.7833  164.4756 C.2     1  UNL1        0.2636
     21 O         141.6128  141.8206  163.5630 O.2     1  UNL1       -0.2685
     22 H         140.3684  138.7210  164.5598 H       1  UNL1        0.1498
     23 C         140.7209  141.1275  165.9028 C.2     1  UNL1        0.1341
     24 C         140.9710  142.4505  166.5643 C.2     1  UNL1        0.0249
     25 C         140.5139  142.3498  167.9894 C.2     1  UNL1        0.0155
     26 C         140.5138  143.3404  169.1157 C.2     1  UNL1        0.0009
     27 C         139.9811  142.9460  170.4613 C.2     1  UNL1       -0.0041
     28 C         139.4486  141.5610  170.6806 C.2     1  UNL1       -0.0198
     29 C         139.4487  140.5703  169.5543 C.3     1  UNL1        0.0717
     30 C         139.9813  140.9648  168.2087 C.2     1  UNL1        0.0635
     31 N         140.1093  140.2094  166.9191 N.2     1  UNL1       -0.2448
@<TRIPOS>BOND
     1    16    17    1
     2    17    18    1
     3    17    15    1
     4    15    14    1
     5    14    10    1
     6    10    11   am
     7    11    12    2
     8     1    11    1
     9     1     2    1
    10     2     3   ar
    11     3     4   ar
    12     4     5   ar
    13     5     6   ar
    14     6     7   ar
    15     7     8    1
    16     8     9    1
    17     9    19    1
    18    19    20   am
    19    20    21    2
    20    20    23    1
    21    23    24    2
    22    24    25    1
    23    25    26    2
    24    26    27    1
    25    27    28    2
    26    28    29    1
    27    29    30    1
    28    30    31    2
    29     9     1    1
    30    31    23    1
    31     7     2   ar
    32    30    25    1
    33    10    13    1
    34    19    22    1
@<TRIPOS>MOLECULE
*****
 31 34 0 0 0
SMALL
GASTEIGER

@<TRIPOS>ATOM
      1 C         139.1272  142.6122  161.2367 C.3     1  UNL1        0.1166
      2 C         139.1590  142.9766  159.7820 C.ar    1  UNL1       -0.0162
      3 C         138.4939  142.3722  158.5811 C.ar    1  UNL1       -0.0041
      4 C         138.7170  142.9660  157.2219 C.ar    1  UNL1       -0.0003
      5 C         139.6053  144.1643  157.0636 C.ar    1  UNL1       -0.0003
      6 C         140.2704  144.7688  158.2645 C.ar    1  UNL1       -0.0045
      7 C         140.0473  144.1750  159.6237 C.ar    1  UNL1       -0.0240
      8 C         140.5644  144.5511  160.9806 C.3     1  UNL1        0.0464
      9 C         139.9958  143.5852  161.9775 C.3     1  UNL1        0.0888
     10 N         138.9253  140.0850  161.8047 N.am    1  UNL1       -0.3026
     11 C         138.3613  141.4744  161.8440 C.2     1  UNL1        0.2278
     12 O         137.0315  141.7259  162.4906 O.2     1  UNL1       -0.2747
     13 H         139.7982  139.9198  161.3803 H       1  UNL1        0.1495
     14 C         138.1594  138.9472  162.4120 C.3     1  UNL1        0.1067
     15 C         138.8776  137.6988  162.8312 C.3     1  UNL1        0.0937
     16 C         141.0264  137.2268  164.2132 C.3     1  UNL1        0.0897
     17 N         139.5886  137.6500  164.1511 N.3     1  UNL1       -0.2689
     18 C         138.8620  138.0244  165.4088 C.3     1  UNL1        0.0897
     19 N         140.2510  143.5914  163.4556 N.am    1  UNL1       -0.3001
     20 C         141.0393  142.4813  164.0852 C.2     1  UNL1        0.2636
     21 O         141.5724  141.3651  163.2367 O.2     1  UNL1       -0.2685
     22 H         139.9011  144.3240  164.0125 H       1  UNL1        0.1498
     23 C         141.2944  142.4875  165.5633 C.2     1  UNL1        0.1341
     24 C         142.6209  142.2724  166.2300 C.2     1  UNL1        0.0249
     25 C         142.4142  142.3618  167.7130 C.2     1  UNL1        0.0155
     26 C         143.3623  142.2319  168.8681 C.2     1  UNL1        0.0009
     27 C         142.8562  142.3724  170.2731 C.2     1  UNL1       -0.0041
     28 C         141.4021  142.6427  170.5230 C.2     1  UNL1       -0.0198
     29 C         140.4540  142.7725  169.3679 C.3     1  UNL1        0.0717
     30 C         140.9601  142.6320  167.9629 C.2     1  UNL1        0.0635
     31 N         140.2681  142.7097  166.6344 N.2     1  UNL1       -0.2448
@<TRIPOS>BOND
     1    16    17    1
     2    17    18    1
     3    17    15    1
     4    15    14    1
     5    14    10    1
     6    10    11   am
     7    11    12    2
     8     1    11    1
     9     1     2    1
    10     2     3   ar
    11     3     4   ar
    12     4     5   ar
    13     5     6   ar
    14     6     7   ar
    15     7     8    1
    16     8     9    1
    17     9    19    1
    18    19    20   am
    19    20    21    2
    20    20    23    1
    21    23    24    2
    22    24    25    1
    23    25    26    2
    24    26    27    1
    25    27    28    2
    26    28    29    1
    27    29    30    1
    28    30    31    2
    29     9     1    1
    30    31    23    1
    31     7     2   ar
    32    30    25    1
    33    10    13    1
    34    19    22    1
