@<TRIPOS>MOLECULE
*****
 35 40 0 0 0
SMALL
GASTEIGER

@<TRIPOS>ATOM
      1 C         142.2736  139.4724  164.0133 C.ar    1  UNL1       -0.0077
      2 C         142.8236  140.5612  163.1404 C.ar    1  UNL1        0.0159
      3 C         143.1119  140.2891  161.6937 C.ar    1  UNL1        0.0854
      4 N         143.6618  141.3779  160.8208 N.ar    1  UNL1       -0.2136
      5 C         143.9501  141.1057  159.3742 C.ar    1  UNL1        0.2208
      6 N         143.6884  139.7447  158.8004 N.ar    1  UNL1       -0.2120
      7 C         143.1385  138.6559  159.6733 C.ar    1  UNL1        0.1033
      8 C         142.8502  138.9281  161.1199 C.ar    1  UNL1        0.0378
      9 C         142.3002  137.8392  161.9929 C.ar    1  UNL1        0.0141
     10 C         142.0119  138.1114  163.4395 C.ar    1  UNL1        0.0539
     11 CL        141.4619  137.0225  164.3125 Cl      1  UNL1       -0.0826
     12 F         144.1272  138.4368  166.1327 F       1  UNL1       -0.2354
     13 C         142.9121  139.2268  166.5197 C.3     1  UNL1        0.1808
     14 C         142.6238  139.4989  167.9663 C.3     1  UNL1        0.1082
     15 N         141.4088  140.2887  168.3533 N.3     1  UNL1       -0.2674
     16 C         140.4821  140.8065  167.2936 C.3     1  UNL1        0.0727
     17 C         140.7703  140.5344  165.8469 C.3     1  UNL1        0.0245
     18 C         141.9853  139.7445  165.4600 C.3     1  UNL1        0.0586
     19 C         141.1205  140.5609  169.8000 C.3     1  UNL1        0.1173
     20 C         140.0622  140.1272  170.7705 C.3     1  UNL1        0.1606
     21 O         140.7129  140.9458  171.8459 O.3     1  UNL1       -0.3507
     22 C         141.7712  141.3795  170.8754 C.3     1  UNL1        0.1606
     23 N         144.5001  142.1946  158.5012 N.pl3   1  UNL1       -0.2794
     24 H         144.3065  143.1372  158.7091 H       1  UNL1        0.1552
     25 C         145.3451  141.8472  157.3116 C.ar    1  UNL1        0.1001
     26 C         144.9387  140.9641  156.1691 C.ar    1  UNL1        0.1372
     27 N         146.0872  140.8930  155.2069 N.ar    1  UNL1       -0.1654
     28 N         147.2035  141.7321  155.7547 N.ar    1  UNL1       -0.2353
     29 C         146.7448  142.3218  157.0554 C.ar    1  UNL1        0.1499
     30 CL        147.5453  143.2271  157.9439 Cl      1  UNL1       -0.0603
     31 C         148.5431  141.9442  155.1142 C.3     1  UNL1        0.1725
     32 C         150.0079  141.6314  155.0320 C.3     1  UNL1        0.0986
     33 C         149.3988  142.6245  154.0870 C.3     1  UNL1        0.2863
     34 F         150.6124  143.0058  153.2922 F       1  UNL1       -0.2022
     35 F         148.3683  143.4850  153.4181 F       1  UNL1       -0.2022
@<TRIPOS>BOND
     1    12    13    1
     2    13    14    1
     3    14    15    1
     4    15    19    1
     5    19    20    1
     6    20    21    1
     7    21    22    1
     8    15    16    1
     9    16    17    1
    10    17    18    1
    11    18     1    1
    12     1     2   ar
    13     2     3   ar
    14     3     4   ar
    15     4     5   ar
    16     5    23    1
    17    23    25    1
    18    25    26   ar
    19    26    27   ar
    20    27    28   ar
    21    28    31    1
    22    31    32    1
    23    32    33    1
    24    33    34    1
    25    33    35    1
    26    28    29   ar
    27    29    30    1
    28     5     6   ar
    29     6     7   ar
    30     7     8   ar
    31     8     9   ar
    32     9    10   ar
    33    10    11    1
    34    18    13    1
    35    10     1   ar
    36    22    19    1
    37     8     3   ar
    38    29    25   ar
    39    33    31    1
    40    23    24    1
@<TRIPOS>MOLECULE
*****
 35 40 0 0 0
SMALL
GASTEIGER

@<TRIPOS>ATOM
      1 C         142.1838  139.4016  164.0003 C.ar    1  UNL1       -0.0077
      2 C         142.7472  140.4903  163.1359 C.ar    1  UNL1        0.0159
      3 C         143.0444  140.2221  161.6903 C.ar    1  UNL1        0.0854
      4 N         143.6078  141.3108  160.8259 N.ar    1  UNL1       -0.2136
      5 C         143.9050  141.0426  159.3804 C.ar    1  UNL1        0.2208
      6 N         143.6388  139.6856  158.7992 N.ar    1  UNL1       -0.2120
      7 C         143.0754  138.5969  159.6636 C.ar    1  UNL1        0.1033
      8 C         142.7782  138.8651  161.1091 C.ar    1  UNL1        0.0378
      9 C         142.2148  137.7764  161.9736 C.ar    1  UNL1        0.0141
     10 C         141.9176  138.0446  163.4192 C.ar    1  UNL1        0.0539
     11 CL        141.3541  136.9559  164.2836 Cl      1  UNL1       -0.0826
     12 F         139.5406  140.5772  164.7952 F       1  UNL1       -0.2354
     13 C         140.5650  140.2576  165.8434 C.3     1  UNL1        0.1808
     14 C         140.2677  140.5259  167.2889 C.3     1  UNL1        0.1082
     15 N         141.2921  140.2063  168.3371 N.3     1  UNL1       -0.2674
     16 C         142.6136  139.6185  167.9396 C.3     1  UNL1        0.0727
     17 C         142.9109  139.3503  166.4941 C.3     1  UNL1        0.0245
     18 C         141.8866  139.6698  165.4460 C.3     1  UNL1        0.0586
     19 C         140.9948  140.4745  169.7827 C.3     1  UNL1        0.1173
     20 C         141.6237  141.3109  170.8574 C.3     1  UNL1        0.1606
     21 O         140.5744  140.8538  171.8271 O.3     1  UNL1       -0.3507
     22 C         139.9456  140.0175  170.7523 C.3     1  UNL1        0.1606
     23 N         144.4685  142.1313  158.5159 N.pl3   1  UNL1       -0.2794
     24 H         144.2822  143.0744  158.7281 H       1  UNL1        0.1552
     25 C         145.3156  141.7830  157.3280 C.ar    1  UNL1        0.1001
     26 C         144.9247  140.8709  156.2032 C.ar    1  UNL1        0.1372
     27 N         146.0699  140.8098  155.2364 N.ar    1  UNL1       -0.1654
     28 N         147.1687  141.6842  155.7637 N.ar    1  UNL1       -0.2353
     29 C         146.7025  142.2857  157.0564 C.ar    1  UNL1        0.1499
     30 CL        147.4858  143.2249  157.9249 Cl      1  UNL1       -0.0603
     31 C         148.5000  141.9164  155.1127 C.3     1  UNL1        0.1725
     32 C         149.9815  141.6861  155.0670 C.3     1  UNL1        0.0986
     33 C         149.3243  142.5489  154.0308 C.3     1  UNL1        0.2863
     34 F         150.5212  142.9274  153.2098 F       1  UNL1       -0.2022
     35 F         148.2513  143.2802  153.2797 F       1  UNL1       -0.2022
@<TRIPOS>BOND
     1    12    13    1
     2    13    14    1
     3    14    15    1
     4    15    19    1
     5    19    20    1
     6    20    21    1
     7    21    22    1
     8    15    16    1
     9    16    17    1
    10    17    18    1
    11    18     1    1
    12     1     2   ar
    13     2     3   ar
    14     3     4   ar
    15     4     5   ar
    16     5    23    1
    17    23    25    1
    18    25    26   ar
    19    26    27   ar
    20    27    28   ar
    21    28    31    1
    22    31    32    1
    23    32    33    1
    24    33    34    1
    25    33    35    1
    26    28    29   ar
    27    29    30    1
    28     5     6   ar
    29     6     7   ar
    30     7     8   ar
    31     8     9   ar
    32     9    10   ar
    33    10    11    1
    34    18    13    1
    35    10     1   ar
    36    22    19    1
    37     8     3   ar
    38    29    25   ar
    39    33    31    1
    40    23    24    1
@<TRIPOS>MOLECULE
*****
 35 40 0 0 0
SMALL
GASTEIGER

@<TRIPOS>ATOM
      1 C         139.8914  139.6092  164.1785 C.ar    1  UNL1       -0.0077
      2 C         139.3525  140.5563  163.1478 C.ar    1  UNL1        0.0159
      3 C         139.2175  140.1143  161.7207 C.ar    1  UNL1        0.0854
      4 N         138.6785  141.0614  160.6900 N.ar    1  UNL1       -0.2136
      5 C         138.5435  140.6194  159.2630 C.ar    1  UNL1        0.2208
      6 N         138.9476  139.2303  158.8668 N.ar    1  UNL1       -0.2120
      7 C         139.4865  138.2831  159.8975 C.ar    1  UNL1        0.1033
      8 C         139.6215  138.7252  161.3245 C.ar    1  UNL1        0.0378
      9 C         140.1605  137.7780  162.3553 C.ar    1  UNL1        0.0141
     10 C         140.2955  138.2201  163.7823 C.ar    1  UNL1        0.0539
     11 CL        140.8345  137.2729  164.8131 Cl      1  UNL1       -0.0826
     12 F         137.8820  138.7196  166.2208 F       1  UNL1       -0.2354
     13 C         139.0217  139.6064  166.6267 C.3     1  UNL1        0.1808
     14 C         139.1567  140.0484  168.0537 C.3     1  UNL1        0.1082
     15 N         140.2963  140.9352  168.4596 N.3     1  UNL1       -0.2674
     16 C         141.3010  141.3800  167.4385 C.3     1  UNL1        0.0727
     17 C         141.1661  140.9380  166.0115 C.3     1  UNL1        0.0245
     18 C         140.0264  140.0512  165.6056 C.3     1  UNL1        0.0586
     19 C         140.4313  141.3772  169.8867 C.3     1  UNL1        0.1173
     20 C         141.0984  140.8225  171.1104 C.3     1  UNL1        0.1606
     21 O         140.6222  142.0023  171.9048 O.3     1  UNL1       -0.3507
     22 C         139.9551  142.5570  170.6812 C.3     1  UNL1        0.1606
     23 N         138.0045  141.5666  158.2322 N.pl3   1  UNL1       -0.2794
     24 H         137.1354  141.3875  157.8059 H       1  UNL1        0.1552
     25 C         138.7898  142.7864  157.8511 C.ar    1  UNL1        0.1001
     26 C         140.0017  143.3124  158.5615 C.ar    1  UNL1        0.1372
     27 N         140.4620  144.5455  157.8420 N.ar    1  UNL1       -0.1654
     28 N         139.5346  144.7816  156.6869 N.ar    1  UNL1       -0.2353
     29 C         138.5012  143.6944  156.6925 C.ar    1  UNL1        0.1499
     30 CL        137.3765  143.5420  155.7117 Cl      1  UNL1       -0.0603
     31 C         139.6248  145.9072  155.6996 C.3     1  UNL1        0.1725
     32 C         140.0610  146.4315  154.3636 C.3     1  UNL1        0.0986
     33 C         139.3448  147.3326  155.3255 C.3     1  UNL1        0.2863
     34 F         139.3093  148.5976  154.5201 F       1  UNL1       -0.2022
     35 F         138.6410  147.7944  156.5670 F       1  UNL1       -0.2022
@<TRIPOS>BOND
     1    12    13    1
     2    13    14    1
     3    14    15    1
     4    15    19    1
     5    19    20    1
     6    20    21    1
     7    21    22    1
     8    15    16    1
     9    16    17    1
    10    17    18    1
    11    18     1    1
    12     1     2   ar
    13     2     3   ar
    14     3     4   ar
    15     4     5   ar
    16     5    23    1
    17    23    25    1
    18    25    26   ar
    19    26    27   ar
    20    27    28   ar
    21    28    31    1
    22    31    32    1
    23    32    33    1
    24    33    34    1
    25    33    35    1
    26    28    29   ar
    27    29    30    1
    28     5     6   ar
    29     6     7   ar
    30     7     8   ar
    31     8     9   ar
    32     9    10   ar
    33    10    11    1
    34    18    13    1
    35    10     1   ar
    36    22    19    1
    37     8     3   ar
    38    29    25   ar
    39    33    31    1
    40    23    24    1
@<TRIPOS>MOLECULE
*****
 35 40 0 0 0
SMALL
GASTEIGER

@<TRIPOS>ATOM
      1 C         142.1615  139.2919  164.0310 C.ar    1  UNL1       -0.0077
      2 C         142.8297  140.3193  163.1662 C.ar    1  UNL1        0.0159
      3 C         143.0942  140.0245  161.7194 C.ar    1  UNL1        0.0854
      4 N         143.7623  141.0520  160.8546 N.ar    1  UNL1       -0.2136
      5 C         144.0269  140.7571  159.4079 C.ar    1  UNL1        0.2208
      6 N         143.6232  139.4349  158.8259 N.ar    1  UNL1       -0.2120
      7 C         142.9551  138.4074  159.6907 C.ar    1  UNL1        0.1033
      8 C         142.6906  138.7022  161.1374 C.ar    1  UNL1        0.0378
      9 C         142.0224  137.6748  162.0023 C.ar    1  UNL1        0.0141
     10 C         141.7579  137.9696  163.4490 C.ar    1  UNL1        0.0539
     11 CL        141.0897  136.9421  164.3139 Cl      1  UNL1       -0.0826
     12 F         144.1354  138.4355  166.1215 F       1  UNL1       -0.2354
     13 C         142.8839  139.1585  166.5231 C.3     1  UNL1        0.1808
     14 C         142.6194  139.4532  167.9698 C.3     1  UNL1        0.1082
     15 N         141.3680  140.1762  168.3713 N.3     1  UNL1       -0.2674
     16 C         140.3811  140.6044  167.3260 C.3     1  UNL1        0.0727
     17 C         140.6455  140.3096  165.8793 C.3     1  UNL1        0.0245
     18 C         141.8970  139.5867  165.4778 C.3     1  UNL1        0.0586
     19 C         141.1034  140.4710  169.8181 C.3     1  UNL1        0.1173
     20 C         141.7940  141.2737  170.8805 C.3     1  UNL1        0.1606
     21 O         140.7293  140.8878  171.8641 O.3     1  UNL1       -0.3507
     22 C         140.0387  140.0851  170.8017 C.3     1  UNL1        0.1606
     23 N         144.6950  141.7846  158.5430 N.pl3   1  UNL1       -0.2794
     24 H         145.6726  141.8958  158.5766 H       1  UNL1        0.1552
     25 C         143.8736  142.6427  157.6270 C.ar    1  UNL1        0.1001
     26 C         143.9297  142.6375  156.1281 C.ar    1  UNL1        0.1372
     27 N         142.9426  143.6481  155.6237 N.ar    1  UNL1       -0.1654
     28 N         142.2765  144.2780  156.8110 N.ar    1  UNL1       -0.2353
     29 C         142.8519  143.6565  158.0491 C.ar    1  UNL1        0.1499
     30 CL        142.4722  143.9904  159.4613 Cl      1  UNL1       -0.0603
     31 C         141.2205  145.3423  156.7678 C.3     1  UNL1        0.1725
     32 C         140.1494  146.1381  157.4531 C.3     1  UNL1        0.0986
     33 C         140.4623  146.3900  156.0079 C.3     1  UNL1        0.2863
     34 F         139.4767  147.4819  155.7145 F       1  UNL1       -0.2022
     35 F         141.1176  146.2627  154.6646 F       1  UNL1       -0.2022
@<TRIPOS>BOND
     1    12    13    1
     2    13    14    1
     3    14    15    1
     4    15    19    1
     5    19    20    1
     6    20    21    1
     7    21    22    1
     8    15    16    1
     9    16    17    1
    10    17    18    1
    11    18     1    1
    12     1     2   ar
    13     2     3   ar
    14     3     4   ar
    15     4     5   ar
    16     5    23    1
    17    23    25    1
    18    25    26   ar
    19    26    27   ar
    20    27    28   ar
    21    28    31    1
    22    31    32    1
    23    32    33    1
    24    33    34    1
    25    33    35    1
    26    28    29   ar
    27    29    30    1
    28     5     6   ar
    29     6     7   ar
    30     7     8   ar
    31     8     9   ar
    32     9    10   ar
    33    10    11    1
    34    18    13    1
    35    10     1   ar
    36    22    19    1
    37     8     3   ar
    38    29    25   ar
    39    33    31    1
    40    23    24    1
@<TRIPOS>MOLECULE
*****
 35 40 0 0 0
SMALL
GASTEIGER

@<TRIPOS>ATOM
      1 C         142.0963  142.5336  163.9463 C.ar    1  UNL1       -0.0077
      2 C         141.4316  141.5652  163.0134 C.ar    1  UNL1        0.0159
      3 C         141.7041  141.6358  161.5400 C.ar    1  UNL1        0.0854
      4 N         141.0394  140.6674  160.6071 N.ar    1  UNL1       -0.2136
      5 C         141.3119  140.7380  159.1338 C.ar    1  UNL1        0.2208
      6 N         142.2491  141.7771  158.5933 N.ar    1  UNL1       -0.2120
      7 C         142.9138  142.7455  159.5262 C.ar    1  UNL1        0.1033
      8 C         142.6413  142.6748  160.9995 C.ar    1  UNL1        0.0378
      9 C         143.3060  143.6432  161.9325 C.ar    1  UNL1        0.0141
     10 C         143.0335  143.5726  163.4058 C.ar    1  UNL1        0.0539
     11 CL        143.6983  144.5410  164.3388 Cl      1  UNL1       -0.0826
     12 F         139.5606  143.6871  165.0597 F       1  UNL1       -0.2354
     13 C         140.5560  143.0397  165.9764 C.3     1  UNL1        0.1808
     14 C         140.2835  142.9691  167.4497 C.3     1  UNL1        0.1082
     15 N         141.2789  142.3218  168.3663 N.3     1  UNL1       -0.2674
     16 C         142.5467  141.7451  167.8096 C.3     1  UNL1        0.0727
     17 C         142.8192  141.8157  166.3363 C.3     1  UNL1        0.0245
     18 C         141.8239  142.4630  165.4197 C.3     1  UNL1        0.0586
     19 C         141.0064  142.2512  169.8397 C.3     1  UNL1        0.1173
     20 C         139.9237  142.7615  170.7438 C.3     1  UNL1        0.1606
     21 O         140.6211  142.1513  171.9234 O.3     1  UNL1       -0.3507
     22 C         141.7038  141.6411  171.0193 C.3     1  UNL1        0.1606
     23 N         140.6471  139.7696  158.2008 N.pl3   1  UNL1       -0.2794
     24 H         139.7260  139.9343  157.8947 H       1  UNL1        0.1552
     25 C         141.3859  138.5504  157.7342 C.ar    1  UNL1        0.1001
     26 C         142.8108  138.2071  158.0529 C.ar    1  UNL1        0.1372
     27 N         143.1350  136.9049  157.3826 N.ar    1  UNL1       -0.1654
     28 N         141.9104  136.4434  156.6497 N.ar    1  UNL1       -0.2353
     29 C         140.8294  137.4603  156.8670 C.ar    1  UNL1        0.1499
     30 CL        139.4364  137.3981  156.3141 Cl      1  UNL1       -0.0603
     31 C         141.7882  135.1857  155.8414 C.3     1  UNL1        0.1725
     32 C         141.3676  134.4860  154.5830 C.3     1  UNL1        0.0986
     33 C         141.9970  133.7071  155.6997 C.3     1  UNL1        0.2863
     34 F         141.9860  132.3333  155.0975 F       1  UNL1       -0.2022
     35 F         142.6304  133.4053  157.0256 F       1  UNL1       -0.2022
@<TRIPOS>BOND
     1    12    13    1
     2    13    14    1
     3    14    15    1
     4    15    19    1
     5    19    20    1
     6    20    21    1
     7    21    22    1
     8    15    16    1
     9    16    17    1
    10    17    18    1
    11    18     1    1
    12     1     2   ar
    13     2     3   ar
    14     3     4   ar
    15     4     5   ar
    16     5    23    1
    17    23    25    1
    18    25    26   ar
    19    26    27   ar
    20    27    28   ar
    21    28    31    1
    22    31    32    1
    23    32    33    1
    24    33    34    1
    25    33    35    1
    26    28    29   ar
    27    29    30    1
    28     5     6   ar
    29     6     7   ar
    30     7     8   ar
    31     8     9   ar
    32     9    10   ar
    33    10    11    1
    34    18    13    1
    35    10     1   ar
    36    22    19    1
    37     8     3   ar
    38    29    25   ar
    39    33    31    1
    40    23    24    1
@<TRIPOS>MOLECULE
*****
 35 40 0 0 0
SMALL
GASTEIGER

@<TRIPOS>ATOM
      1 C         143.0579  141.6391  163.4146 C.ar    1  UNL1       -0.0077
      2 C         142.5522  140.9896  162.1607 C.ar    1  UNL1        0.0159
      3 C         143.1508  141.3526  160.8340 C.ar    1  UNL1        0.0854
      4 N         142.6450  140.7031  159.5801 N.ar    1  UNL1       -0.2136
      5 C         143.2436  141.0662  158.2535 C.ar    1  UNL1        0.2208
      6 N         144.3479  142.0787  158.1809 N.ar    1  UNL1       -0.2120
      7 C         144.8536  142.7282  159.4348 C.ar    1  UNL1        0.1033
      8 C         144.2551  142.3652  160.7613 C.ar    1  UNL1        0.0378
      9 C         144.7608  143.0147  162.0154 C.ar    1  UNL1        0.0141
     10 C         144.1622  142.6516  163.3419 C.ar    1  UNL1        0.0539
     11 CL        144.6679  143.3012  164.5959 Cl      1  UNL1       -0.0826
     12 F         144.2540  139.4220  165.0436 F       1  UNL1       -0.2354
     13 C         143.0574  140.1675  165.5558 C.3     1  UNL1        0.1808
     14 C         142.4589  139.8045  166.8824 C.3     1  UNL1        0.1082
     15 N         141.2623  140.5500  167.3945 N.3     1  UNL1       -0.2674
     16 C         140.6642  141.6586  166.5800 C.3     1  UNL1        0.0727
     17 C         141.2627  142.0216  165.2534 C.3     1  UNL1        0.0245
     18 C         142.4593  141.2761  164.7413 C.3     1  UNL1        0.0586
     19 C         140.6637  140.1870  168.7212 C.3     1  UNL1        0.1173
     20 C         139.2928  140.2688  169.3243 C.3     1  UNL1        0.1606
     21 O         139.8173  139.6736  170.5973 O.3     1  UNL1       -0.3507
     22 C         141.1883  139.5918  169.9942 C.3     1  UNL1        0.1606
     23 N         142.7379  140.4167  156.9995 N.pl3   1  UNL1       -0.2794
     24 H         142.0389  140.8574  156.4643 H       1  UNL1        0.1552
     25 C         143.2972  139.0957  156.5610 C.ar    1  UNL1        0.1001
     26 C         144.5308  138.8919  155.7324 C.ar    1  UNL1        0.1372
     27 N         144.7171  137.4168  155.5334 N.ar    1  UNL1       -0.1654
     28 N         143.5985  136.7090  156.2391 N.ar    1  UNL1       -0.2353
     29 C         142.7210  137.7466  156.8741 C.ar    1  UNL1        0.1499
     30 CL        141.4844  137.4816  157.6807 Cl      1  UNL1       -0.0603
     31 C         143.3935  135.2243  156.2991 C.3     1  UNL1        0.1725
     32 C         143.1256  133.9209  155.6067 C.3     1  UNL1        0.0986
     33 C         143.3063  133.9561  157.0954 C.3     1  UNL1        0.2863
     34 F         143.1358  132.5001  157.4129 F       1  UNL1       -0.2022
     35 F         143.5463  134.4971  158.4738 F       1  UNL1       -0.2022
@<TRIPOS>BOND
     1    12    13    1
     2    13    14    1
     3    14    15    1
     4    15    19    1
     5    19    20    1
     6    20    21    1
     7    21    22    1
     8    15    16    1
     9    16    17    1
    10    17    18    1
    11    18     1    1
    12     1     2   ar
    13     2     3   ar
    14     3     4   ar
    15     4     5   ar
    16     5    23    1
    17    23    25    1
    18    25    26   ar
    19    26    27   ar
    20    27    28   ar
    21    28    31    1
    22    31    32    1
    23    32    33    1
    24    33    34    1
    25    33    35    1
    26    28    29   ar
    27    29    30    1
    28     5     6   ar
    29     6     7   ar
    30     7     8   ar
    31     8     9   ar
    32     9    10   ar
    33    10    11    1
    34    18    13    1
    35    10     1   ar
    36    22    19    1
    37     8     3   ar
    38    29    25   ar
    39    33    31    1
    40    23    24    1
@<TRIPOS>MOLECULE
*****
 35 40 0 0 0
SMALL
GASTEIGER

@<TRIPOS>ATOM
      1 C         140.3022  139.6779  164.2428 C.ar    1  UNL1       -0.0077
      2 C         139.3027  140.2419  163.2770 C.ar    1  UNL1        0.0159
      3 C         139.2786  139.7611  161.8563 C.ar    1  UNL1        0.0854
      4 N         138.2791  140.3251  160.8905 N.ar    1  UNL1       -0.2136
      5 C         138.2550  139.8443  159.4699 C.ar    1  UNL1        0.2208
      6 N         139.2304  138.7994  159.0151 N.ar    1  UNL1       -0.2120
      7 C         140.2299  138.2354  159.9809 C.ar    1  UNL1        0.1033
      8 C         140.2540  138.7162  161.4015 C.ar    1  UNL1        0.0378
      9 C         141.2535  138.1522  162.3674 C.ar    1  UNL1        0.0141
     10 C         141.2776  138.6331  163.7880 C.ar    1  UNL1        0.0539
     11 CL        142.2772  138.0690  164.7539 Cl      1  UNL1       -0.0826
     12 F         138.4977  138.4203  166.2829 F       1  UNL1       -0.2354
     13 C         139.4241  139.5299  166.6836 C.3     1  UNL1        0.1808
     14 C         139.4482  140.0107  168.1042 C.3     1  UNL1        0.1082
     15 N         140.3746  141.1203  168.5048 N.3     1  UNL1       -0.2674
     16 C         141.2769  141.7492  167.4847 C.3     1  UNL1        0.0727
     17 C         141.2528  141.2684  166.0641 C.3     1  UNL1        0.0245
     18 C         140.3264  140.1588  165.6635 C.3     1  UNL1        0.0586
     19 C         140.3987  141.6012  169.9255 C.3     1  UNL1        0.1173
     20 C         139.7478  142.7249  170.6761 C.3     1  UNL1        0.1606
     21 O         140.4329  142.2811  171.9346 O.3     1  UNL1       -0.3507
     22 C         141.0838  141.1573  171.1839 C.3     1  UNL1        0.1606
     23 N         137.2554  140.4083  158.5041 N.pl3   1  UNL1       -0.2794
     24 H         136.3194  140.1042  158.5306 H       1  UNL1        0.1552
     25 C         137.6820  141.4357  157.4978 C.ar    1  UNL1        0.1001
     26 C         137.4080  141.3930  156.0237 C.ar    1  UNL1        0.1372
     27 N         138.0141  142.6170  155.4038 N.ar    1  UNL1       -0.1654
     28 N         138.6628  143.4163  156.4949 N.ar    1  UNL1       -0.2353
     29 C         138.4575  142.6862  157.7890 C.ar    1  UNL1        0.1499
     30 CL        138.9426  143.1289  159.1376 Cl      1  UNL1       -0.0603
     31 C         139.3892  144.7173  156.3221 C.3     1  UNL1        0.1725
     32 C         140.6313  145.5428  156.4824 C.3     1  UNL1        0.0986
     33 C         139.4053  146.1451  155.8627 C.3     1  UNL1        0.2863
     34 F         139.9078  147.5308  155.5849 F       1  UNL1       -0.2022
     35 F         138.0047  146.2661  155.3393 F       1  UNL1       -0.2022
@<TRIPOS>BOND
     1    12    13    1
     2    13    14    1
     3    14    15    1
     4    15    19    1
     5    19    20    1
     6    20    21    1
     7    21    22    1
     8    15    16    1
     9    16    17    1
    10    17    18    1
    11    18     1    1
    12     1     2   ar
    13     2     3   ar
    14     3     4   ar
    15     4     5   ar
    16     5    23    1
    17    23    25    1
    18    25    26   ar
    19    26    27   ar
    20    27    28   ar
    21    28    31    1
    22    31    32    1
    23    32    33    1
    24    33    34    1
    25    33    35    1
    26    28    29   ar
    27    29    30    1
    28     5     6   ar
    29     6     7   ar
    30     7     8   ar
    31     8     9   ar
    32     9    10   ar
    33    10    11    1
    34    18    13    1
    35    10     1   ar
    36    22    19    1
    37     8     3   ar
    38    29    25   ar
    39    33    31    1
    40    23    24    1
@<TRIPOS>MOLECULE
*****
 35 40 0 0 0
SMALL
GASTEIGER

@<TRIPOS>ATOM
      1 C         141.5166  141.2659  159.3584 C.ar    1  UNL1       -0.0077
      2 C         141.4633  140.2886  160.4950 C.ar    1  UNL1        0.0159
      3 C         140.2201  140.1721  161.3264 C.ar    1  UNL1        0.0854
      4 N         140.1668  139.1948  162.4630 N.ar    1  UNL1       -0.2136
      5 C         138.9237  139.0784  163.2943 C.ar    1  UNL1        0.2208
      6 N         137.7339  139.9393  162.9889 N.ar    1  UNL1       -0.2120
      7 C         137.7872  140.9165  161.8522 C.ar    1  UNL1        0.1033
      8 C         139.0303  141.0330  161.0210 C.ar    1  UNL1        0.0378
      9 C         139.0836  142.0103  159.8843 C.ar    1  UNL1        0.0141
     10 C         140.3268  142.1267  159.0530 C.ar    1  UNL1        0.0539
     11 CL        140.3801  143.1041  157.9163 Cl      1  UNL1       -0.0826
     12 F         143.6387  143.2511  160.1034 F       1  UNL1       -0.2354
     13 C         143.8208  142.3750  158.8996 C.3     1  UNL1        0.1808
     14 C         145.0639  142.4915  158.0683 C.3     1  UNL1        0.1082
     15 N         145.2460  141.6153  156.8645 N.3     1  UNL1       -0.2674
     16 C         144.1849  140.6227  156.4920 C.3     1  UNL1        0.0727
     17 C         142.9418  140.5062  157.3232 C.3     1  UNL1        0.0245
     18 C         142.7597  141.3823  158.5270 C.3     1  UNL1        0.0586
     19 C         146.4891  141.7318  156.0332 C.3     1  UNL1        0.1173
     20 C         146.8736  141.3351  154.6386 C.3     1  UNL1        0.1606
     21 O         148.2472  141.8965  154.8576 O.3     1  UNL1       -0.3507
     22 C         147.8628  142.2933  156.2521 C.3     1  UNL1        0.1606
     23 N         138.8703  138.1011  164.4310 N.pl3   1  UNL1       -0.2794
     24 H         138.9212  137.1343  164.2518 H       1  UNL1        0.1552
     25 C         138.7394  138.5967  165.8407 C.ar    1  UNL1        0.1001
     26 C         137.6668  138.2099  166.8153 C.ar    1  UNL1        0.1372
     27 N         137.9227  138.9403  168.1002 N.ar    1  UNL1       -0.1654
     28 N         139.1535  139.7785  167.9198 N.ar    1  UNL1       -0.2353
     29 C         139.6582  139.5661  166.5233 C.ar    1  UNL1        0.1499
     30 CL        140.8692  140.2102  165.9161 Cl      1  UNL1       -0.0603
     31 C         139.7710  140.6722  168.9541 C.3     1  UNL1        0.1725
     32 C         140.4320  141.9667  169.3249 C.3     1  UNL1        0.0986
     33 C         140.1798  140.9257  170.3749 C.3     1  UNL1        0.2863
     34 F         140.7442  141.6250  171.5759 F       1  UNL1       -0.2022
     35 F         139.7315  139.6417  171.0079 F       1  UNL1       -0.2022
@<TRIPOS>BOND
     1    12    13    1
     2    13    14    1
     3    14    15    1
     4    15    19    1
     5    19    20    1
     6    20    21    1
     7    21    22    1
     8    15    16    1
     9    16    17    1
    10    17    18    1
    11    18     1    1
    12     1     2   ar
    13     2     3   ar
    14     3     4   ar
    15     4     5   ar
    16     5    23    1
    17    23    25    1
    18    25    26   ar
    19    26    27   ar
    20    27    28   ar
    21    28    31    1
    22    31    32    1
    23    32    33    1
    24    33    34    1
    25    33    35    1
    26    28    29   ar
    27    29    30    1
    28     5     6   ar
    29     6     7   ar
    30     7     8   ar
    31     8     9   ar
    32     9    10   ar
    33    10    11    1
    34    18    13    1
    35    10     1   ar
    36    22    19    1
    37     8     3   ar
    38    29    25   ar
    39    33    31    1
    40    23    24    1
@<TRIPOS>MOLECULE
*****
 35 40 0 0 0
SMALL
GASTEIGER

@<TRIPOS>ATOM
      1 C         142.1537  136.9779  156.4494 C.ar    1  UNL1       -0.0077
      2 C         140.8992  137.1657  157.2499 C.ar    1  UNL1        0.0159
      3 C         140.6035  138.4944  157.8802 C.ar    1  UNL1        0.0854
      4 N         139.3490  138.6821  158.6808 N.ar    1  UNL1       -0.2136
      5 C         139.0534  140.0107  159.3110 C.ar    1  UNL1        0.2208
      6 N         140.0123  141.1516  159.1408 N.ar    1  UNL1       -0.2120
      7 C         141.2668  140.9638  158.3403 C.ar    1  UNL1        0.1033
      8 C         141.5624  139.6352  157.7100 C.ar    1  UNL1        0.0378
      9 C         142.8170  139.4474  156.9095 C.ar    1  UNL1        0.0141
     10 C         143.1126  138.1188  156.2792 C.ar    1  UNL1        0.0539
     11 CL        144.3672  137.9309  155.4786 Cl      1  UNL1       -0.0826
     12 F         143.4633  134.8119  158.0598 F       1  UNL1       -0.2354
     13 C         143.1042  134.5662  156.6243 C.3     1  UNL1        0.1808
     14 C         143.3999  133.2376  155.9940 C.3     1  UNL1        0.1082
     15 N         143.0408  132.9920  154.5585 N.3     1  UNL1       -0.2674
     16 C         142.3860  134.0750  153.7533 C.3     1  UNL1        0.0727
     17 C         142.0903  135.4036  154.3836 C.3     1  UNL1        0.0245
     18 C         142.4494  135.6492  155.8190 C.3     1  UNL1        0.0586
     19 C         143.3365  131.6633  153.9282 C.3     1  UNL1        0.1173
     20 C         143.2195  131.0962  152.5444 C.3     1  UNL1        0.1606
     21 O         143.7547  129.7843  153.0368 O.3     1  UNL1       -0.3507
     22 C         143.8716  130.3514  154.4206 C.3     1  UNL1        0.1606
     23 N         137.7988  140.1986  160.1116 N.pl3   1  UNL1       -0.2794
     24 H         136.9198  140.0830  159.6836 H       1  UNL1        0.1552
     25 C         137.8835  140.5624  161.5643 C.ar    1  UNL1        0.1001
     26 C         137.7452  141.9418  162.1373 C.ar    1  UNL1        0.1372
     27 N         137.8977  141.8427  163.6262 N.ar    1  UNL1       -0.1654
     28 N         138.1303  140.4021  163.9735 N.ar    1  UNL1       -0.2353
     29 C         138.1215  139.6109  162.6992 C.ar    1  UNL1        0.1499
     30 CL        138.3165  138.1284  162.5806 Cl      1  UNL1       -0.0603
     31 C         138.3356  139.8497  165.3529 C.3     1  UNL1        0.1725
     32 C         137.9558  138.8825  166.4347 C.3     1  UNL1        0.0986
     33 C         139.0709  139.8601  166.6603 C.3     1  UNL1        0.2863
     34 F         139.4666  139.4858  168.0579 F       1  UNL1       -0.2022
     35 F         140.0485  140.9677  166.4004 F       1  UNL1       -0.2022
@<TRIPOS>BOND
     1    12    13    1
     2    13    14    1
     3    14    15    1
     4    15    19    1
     5    19    20    1
     6    20    21    1
     7    21    22    1
     8    15    16    1
     9    16    17    1
    10    17    18    1
    11    18     1    1
    12     1     2   ar
    13     2     3   ar
    14     3     4   ar
    15     4     5   ar
    16     5    23    1
    17    23    25    1
    18    25    26   ar
    19    26    27   ar
    20    27    28   ar
    21    28    31    1
    22    31    32    1
    23    32    33    1
    24    33    34    1
    25    33    35    1
    26    28    29   ar
    27    29    30    1
    28     5     6   ar
    29     6     7   ar
    30     7     8   ar
    31     8     9   ar
    32     9    10   ar
    33    10    11    1
    34    18    13    1
    35    10     1   ar
    36    22    19    1
    37     8     3   ar
    38    29    25   ar
    39    33    31    1
    40    23    24    1
