@<TRIPOS>MOLECULE
*****
 24 27 0 0 0
SMALL
GASTEIGER

@<TRIPOS>ATOM
      1 N         139.5393  139.8138  165.3860 N.am    1  UNL1       -0.2398
      2 C         139.2944  138.6713  164.4454 C.3     1  UNL1        0.1213
      3 C         138.4473  139.1751  163.3147 C.3     1  UNL1        0.1169
      4 N         138.1686  140.6291  163.5564 N.am    1  UNL1       -0.2606
      5 C         138.8436  141.0238  164.8365 C.2     1  UNL1        0.3111
      6 O         138.8258  142.3888  165.4581 O.2     1  UNL1       -0.2520
      7 C         142.7399  139.5841  170.4558 C.3     1  UNL1        0.0521
      8 C         141.9397  139.6416  169.1883 C.ar    1  UNL1        0.0595
      9 C         142.6256  139.5033  167.8614 C.ar    1  UNL1        0.0160
     10 C         141.8255  139.5607  166.5940 C.ar    1  UNL1        0.0177
     11 C         140.3395  139.7564  166.6534 C.ar    1  UNL1        0.0745
     12 C         139.6536  139.8947  167.9802 C.ar    1  UNL1        0.1133
     13 N         140.4537  139.8373  169.2477 N.ar    1  UNL1       -0.2468
     14 C         137.3575  141.5301  162.6731 C.3     1  UNL1        0.1123
     15 C         138.0444  142.5010  161.7591 C.3     1  UNL1        0.0944
     16 N         139.4273  142.9845  162.0811 N.3     1  UNL1       -0.2637
     17 C         139.7704  144.2097  162.8755 C.3     1  UNL1        0.0992
     18 C         141.2651  144.3101  162.9506 C.ar    1  UNL1       -0.0088
     19 C         142.1724  145.3103  163.6035 C.ar    1  UNL1       -0.0032
     20 C         143.6604  145.1474  163.5083 C.ar    1  UNL1       -0.0003
     21 C         144.2412  143.9842  162.7602 C.ar    1  UNL1       -0.0003
     22 C         143.3340  142.9839  162.1073 C.ar    1  UNL1       -0.0032
     23 C         141.8459  143.1469  162.2025 C.ar    1  UNL1       -0.0088
     24 C         140.7101  142.3276  161.6652 C.3     1  UNL1        0.0992
@<TRIPOS>BOND
     1     7     8    1
     2     8     9   ar
     3     9    10   ar
     4    10    11   ar
     5    11     1    1
     6     1     2    1
     7     2     3    1
     8     3     4    1
     9     4    14    1
    10    14    15    1
    11    15    16    1
    12    16    17    1
    13    17    18    1
    14    18    19   ar
    15    19    20   ar
    16    20    21   ar
    17    21    22   ar
    18    22    23   ar
    19    23    24    1
    20     4     5   am
    21     5     6    2
    22    11    12   ar
    23    12    13   ar
    24    13     8   ar
    25     5     1   am
    26    24    16    1
    27    23    18   ar
@<TRIPOS>MOLECULE
*****
 24 27 0 0 0
SMALL
GASTEIGER

@<TRIPOS>ATOM
      1 N         141.6850  139.2219  165.4201 N.am    1  UNL1       -0.2398
      2 C         142.5227  138.5378  164.3807 C.3     1  UNL1        0.1213
      3 C         141.5991  137.8389  163.4274 C.3     1  UNL1        0.1169
      4 N         140.1907  138.0912  163.8776 N.am    1  UNL1       -0.2606
      5 C         140.2438  138.9459  165.1092 C.2     1  UNL1        0.3111
      6 O         139.0630  139.4382  165.8923 O.2     1  UNL1       -0.2520
      7 C         143.7390  142.4887  170.0146 C.3     1  UNL1        0.0521
      8 C         143.2255  141.6719  168.8659 C.ar    1  UNL1        0.0595
      9 C         142.9902  142.3176  167.5326 C.ar    1  UNL1        0.0160
     10 C         142.4767  141.5009  166.3839 C.ar    1  UNL1        0.0177
     11 C         142.1985  140.0386  166.5686 C.ar    1  UNL1        0.0745
     12 C         142.4337  139.3929  167.9020 C.ar    1  UNL1        0.1133
     13 N         142.9472  140.2096  169.0506 N.ar    1  UNL1       -0.2468
     14 C         138.9474  137.5787  163.2130 C.3     1  UNL1        0.1123
     15 C         138.1832  138.4602  162.2703 C.3     1  UNL1        0.0944
     16 N         138.3962  139.9448  162.2924 N.3     1  UNL1       -0.2637
     17 C         137.5616  140.9443  163.0369 C.3     1  UNL1        0.0992
     18 C         138.1308  142.3079  162.7785 C.ar    1  UNL1       -0.0088
     19 C         137.7220  143.6720  163.2497 C.ar    1  UNL1       -0.0032
     20 C         138.4998  144.8792  162.8167 C.ar    1  UNL1       -0.0003
     21 C         139.6863  144.7224  161.9125 C.ar    1  UNL1       -0.0003
     22 C         140.0951  143.3583  161.4413 C.ar    1  UNL1       -0.0032
     23 C         139.3173  142.1511  161.8742 C.ar    1  UNL1       -0.0088
     24 C         139.4813  140.6906  161.5738 C.3     1  UNL1        0.0992
@<TRIPOS>BOND
     1     7     8    1
     2     8     9   ar
     3     9    10   ar
     4    10    11   ar
     5    11     1    1
     6     1     2    1
     7     2     3    1
     8     3     4    1
     9     4    14    1
    10    14    15    1
    11    15    16    1
    12    16    17    1
    13    17    18    1
    14    18    19   ar
    15    19    20   ar
    16    20    21   ar
    17    21    22   ar
    18    22    23   ar
    19    23    24    1
    20     4     5   am
    21     5     6    2
    22    11    12   ar
    23    12    13   ar
    24    13     8   ar
    25     5     1   am
    26    24    16    1
    27    23    18   ar
@<TRIPOS>MOLECULE
*****
 24 27 0 0 0
SMALL
GASTEIGER

@<TRIPOS>ATOM
      1 N         138.6347  139.0683  164.2270 N.am    1  UNL1       -0.2398
      2 C         139.1050  137.8275  163.5275 C.3     1  UNL1        0.1213
      3 C         138.7465  137.9494  162.0761 C.3     1  UNL1        0.1169
      4 N         138.0546  139.2656  161.8785 N.am    1  UNL1       -0.2606
      5 C         137.9855  139.9570  163.2079 C.2     1  UNL1        0.3111
      6 O         137.3745  141.3013  163.4718 O.2     1  UNL1       -0.2520
      7 C         139.2432  140.2657  170.0747 C.3     1  UNL1        0.0521
      8 C         139.0911  139.9663  168.6127 C.ar    1  UNL1        0.0595
      9 C         139.9972  140.6237  167.6143 C.ar    1  UNL1        0.0160
     10 C         139.8451  140.3243  166.1524 C.ar    1  UNL1        0.0177
     11 C         138.7869  139.3676  165.6889 C.ar    1  UNL1        0.0745
     12 C         137.8807  138.7103  166.6873 C.ar    1  UNL1        0.1133
     13 N         138.0329  139.0096  168.1492 N.ar    1  UNL1       -0.2468
     14 C         137.5248  139.7970  160.5797 C.3     1  UNL1        0.1123
     15 C         138.2832  140.8576  159.8381 C.3     1  UNL1        0.0944
     16 N         139.1732  141.8051  160.5865 N.3     1  UNL1       -0.2637
     17 C         140.6212  141.5851  160.9102 C.3     1  UNL1        0.0992
     18 C         141.1144  142.7831  161.6663 C.ar    1  UNL1       -0.0088
     19 C         142.4568  143.1235  162.2426 C.ar    1  UNL1       -0.0032
     20 C         142.6559  144.4243  162.9624 C.ar    1  UNL1       -0.0003
     21 C         141.5127  145.3848  163.1059 C.ar    1  UNL1       -0.0003
     22 C         140.1703  145.0444  162.5296 C.ar    1  UNL1       -0.0032
     23 C         139.9712  143.7436  161.8098 C.ar    1  UNL1       -0.0088
     24 C         138.7715  143.1391  161.1424 C.3     1  UNL1        0.0992
@<TRIPOS>BOND
     1     7     8    1
     2     8     9   ar
     3     9    10   ar
     4    10    11   ar
     5    11     1    1
     6     1     2    1
     7     2     3    1
     8     3     4    1
     9     4    14    1
    10    14    15    1
    11    15    16    1
    12    16    17    1
    13    17    18    1
    14    18    19   ar
    15    19    20   ar
    16    20    21   ar
    17    21    22   ar
    18    22    23   ar
    19    23    24    1
    20     4     5   am
    21     5     6    2
    22    11    12   ar
    23    12    13   ar
    24    13     8   ar
    25     5     1   am
    26    24    16    1
    27    23    18   ar
@<TRIPOS>MOLECULE
*****
 24 27 0 0 0
SMALL
GASTEIGER

@<TRIPOS>ATOM
      1 N         140.1924  139.6277  166.8805 N.am    1  UNL1       -0.2398
      2 C         138.7629  139.4022  167.2751 C.3     1  UNL1        0.1213
      3 C         138.0935  138.6345  166.1739 C.3     1  UNL1        0.1169
      4 N         139.1094  138.3856  165.0986 N.am    1  UNL1       -0.2606
      5 C         140.4065  138.9994  165.5354 C.2     1  UNL1        0.3111
      6 O         141.6921  138.9871  164.7627 O.2     1  UNL1       -0.2520
      7 C         144.3274  142.5328  170.1149 C.3     1  UNL1        0.0521
      8 C         143.2936  141.8065  169.3063 C.ar    1  UNL1        0.0595
      9 C         142.4615  142.5544  168.3072 C.ar    1  UNL1        0.0160
     10 C         141.4277  141.8281  167.4985 C.ar    1  UNL1        0.0177
     11 C         141.2261  140.3540  167.6891 C.ar    1  UNL1        0.0745
     12 C         142.0582  139.6061  168.6882 C.ar    1  UNL1        0.1133
     13 N         143.0920  140.3324  169.4968 N.ar    1  UNL1       -0.2468
     14 C         138.8702  137.6517  163.8125 C.3     1  UNL1        0.1123
     15 C         138.5498  138.4151  162.5617 C.3     1  UNL1        0.0944
     16 N         138.6987  139.9075  162.5350 N.3     1  UNL1       -0.2637
     17 C         137.6837  140.9035  163.0120 C.3     1  UNL1        0.0992
     18 C         138.2465  142.2775  162.7984 C.ar    1  UNL1       -0.0088
     19 C         137.6940  143.6433  163.0798 C.ar    1  UNL1       -0.0032
     20 C         138.5045  144.8622  162.7521 C.ar    1  UNL1       -0.0003
     21 C         139.8674  144.7153  162.1432 C.ar    1  UNL1       -0.0003
     22 C         140.4199  143.3494  161.8618 C.ar    1  UNL1       -0.0032
     23 C         139.6094  142.1305  162.1894 C.ar    1  UNL1       -0.0088
     24 C         139.8889  140.6658  162.0267 C.3     1  UNL1        0.0992
@<TRIPOS>BOND
     1     7     8    1
     2     8     9   ar
     3     9    10   ar
     4    10    11   ar
     5    11     1    1
     6     1     2    1
     7     2     3    1
     8     3     4    1
     9     4    14    1
    10    14    15    1
    11    15    16    1
    12    16    17    1
    13    17    18    1
    14    18    19   ar
    15    19    20   ar
    16    20    21   ar
    17    21    22   ar
    18    22    23   ar
    19    23    24    1
    20     4     5   am
    21     5     6    2
    22    11    12   ar
    23    12    13   ar
    24    13     8   ar
    25     5     1   am
    26    24    16    1
    27    23    18   ar
@<TRIPOS>MOLECULE
*****
 24 27 0 0 0
SMALL
GASTEIGER

@<TRIPOS>ATOM
      1 N         139.2285  140.2529  165.5266 N.am    1  UNL1       -0.2398
      2 C         138.2554  140.9546  164.6261 C.3     1  UNL1        0.1213
      3 C         138.1957  140.2005  163.3308 C.3     1  UNL1        0.1169
      4 N         139.1320  139.0328  163.4307 N.am    1  UNL1       -0.2606
      5 C         139.7702  139.0652  164.7877 C.2     1  UNL1        0.3111
      6 O         140.7741  138.0825  165.3137 O.2     1  UNL1       -0.2520
      7 C         140.6960  141.9069  171.1042 C.3     1  UNL1        0.0521
      8 C         140.3291  141.4934  169.7098 C.ar    1  UNL1        0.0595
      9 C         140.6550  142.3892  168.5516 C.ar    1  UNL1        0.0160
     10 C         140.2881  141.9757  167.1572 C.ar    1  UNL1        0.0177
     11 C         139.5954  140.6665  166.9209 C.ar    1  UNL1        0.0745
     12 C         139.2694  139.7707  168.0791 C.ar    1  UNL1        0.1133
     13 N         139.6363  140.1841  169.4735 N.ar    1  UNL1       -0.2468
     14 C         139.3854  138.0119  162.3613 C.3     1  UNL1        0.1123
     15 C         140.6979  137.9962  161.6353 C.3     1  UNL1        0.0944
     16 N         141.7968  138.9282  162.0523 N.3     1  UNL1       -0.2637
     17 C         142.9743  138.5745  162.9116 C.3     1  UNL1        0.0992
     18 C         143.8164  139.8052  163.0736 C.ar    1  UNL1       -0.0088
     19 C         145.0966  140.0551  163.8143 C.ar    1  UNL1       -0.0032
     20 C         145.7197  141.4194  163.7957 C.ar    1  UNL1       -0.0003
     21 C         145.0627  142.5338  163.0365 C.ar    1  UNL1       -0.0003
     22 C         143.7825  142.2839  162.2958 C.ar    1  UNL1       -0.0032
     23 C         143.1594  140.9196  162.3143 C.ar    1  UNL1       -0.0088
     24 C         141.9112  140.3776  161.6832 C.3     1  UNL1        0.0992
@<TRIPOS>BOND
     1     7     8    1
     2     8     9   ar
     3     9    10   ar
     4    10    11   ar
     5    11     1    1
     6     1     2    1
     7     2     3    1
     8     3     4    1
     9     4    14    1
    10    14    15    1
    11    15    16    1
    12    16    17    1
    13    17    18    1
    14    18    19   ar
    15    19    20   ar
    16    20    21   ar
    17    21    22   ar
    18    22    23   ar
    19    23    24    1
    20     4     5   am
    21     5     6    2
    22    11    12   ar
    23    12    13   ar
    24    13     8   ar
    25     5     1   am
    26    24    16    1
    27    23    18   ar
@<TRIPOS>MOLECULE
*****
 24 27 0 0 0
SMALL
GASTEIGER

@<TRIPOS>ATOM
      1 N         141.9409  138.5951  165.0554 N.am    1  UNL1       -0.2398
      2 C         140.8973  137.8232  164.3038 C.3     1  UNL1        0.1213
      3 C         141.4362  137.5259  162.9358 C.3     1  UNL1        0.1169
      4 N         142.8129  138.1142  162.8420 N.am    1  UNL1       -0.2606
      5 C         143.1248  138.7750  164.1520 C.2     1  UNL1        0.3111
      6 O         144.3972  139.4901  164.4979 O.2     1  UNL1       -0.2520
      7 C         141.4637  140.6098  170.6869 C.3     1  UNL1        0.0521
      8 C         141.5830  140.1061  169.2789 C.ar    1  UNL1        0.0595
      9 C         140.4385  140.2717  168.3236 C.ar    1  UNL1        0.0160
     10 C         140.5578  139.7681  166.9158 C.ar    1  UNL1        0.0177
     11 C         141.8216  139.0988  166.4632 C.ar    1  UNL1        0.0745
     12 C         142.9661  138.9332  167.4185 C.ar    1  UNL1        0.1133
     13 N         142.8469  139.4368  168.8264 N.ar    1  UNL1       -0.2468
     14 C         143.7186  138.0525  161.6479 C.3     1  UNL1        0.1123
     15 C         143.9043  139.2645  160.7840 C.3     1  UNL1        0.0944
     16 N         143.6037  140.6285  161.3309 N.3     1  UNL1       -0.2637
     17 C         144.6130  141.6242  161.8207 C.3     1  UNL1        0.0992
     18 C         143.8741  142.8474  162.2765 C.ar    1  UNL1       -0.0088
     19 C         144.3467  144.1485  162.8542 C.ar    1  UNL1       -0.0032
     20 C         143.3533  145.2099  163.2237 C.ar    1  UNL1       -0.0003
     21 C         141.8873  144.9702  163.0156 C.ar    1  UNL1       -0.0003
     22 C         141.4147  143.6691  162.4380 C.ar    1  UNL1       -0.0032
     23 C         142.4080  142.6077  162.0684 C.ar    1  UNL1       -0.0088
     24 C         142.2410  141.2364  161.4840 C.3     1  UNL1        0.0992
@<TRIPOS>BOND
     1     7     8    1
     2     8     9   ar
     3     9    10   ar
     4    10    11   ar
     5    11     1    1
     6     1     2    1
     7     2     3    1
     8     3     4    1
     9     4    14    1
    10    14    15    1
    11    15    16    1
    12    16    17    1
    13    17    18    1
    14    18    19   ar
    15    19    20   ar
    16    20    21   ar
    17    21    22   ar
    18    22    23   ar
    19    23    24    1
    20     4     5   am
    21     5     6    2
    22    11    12   ar
    23    12    13   ar
    24    13     8   ar
    25     5     1   am
    26    24    16    1
    27    23    18   ar
@<TRIPOS>MOLECULE
*****
 24 27 0 0 0
SMALL
GASTEIGER

@<TRIPOS>ATOM
      1 N         142.4478  139.0504  162.4689 N.am    1  UNL1       -0.2398
      2 C         143.1850  139.1500  163.7714 C.3     1  UNL1        0.1213
      3 C         142.3046  138.5854  164.8467 C.3     1  UNL1        0.1169
      4 N         141.0233  138.1368  164.2086 N.am    1  UNL1       -0.2606
      5 C         141.1118  138.4242  162.7391 C.2     1  UNL1        0.3111
      6 O         140.0507  138.1360  161.7188 O.2     1  UNL1       -0.2520
      7 C         144.4856  140.8420  157.1175 C.3     1  UNL1        0.0521
      8 C         143.9761  140.3941  158.4554 C.ar    1  UNL1        0.0595
      9 C         143.8698  141.3758  159.5845 C.ar    1  UNL1        0.0160
     10 C         143.3603  140.9280  160.9223 C.ar    1  UNL1        0.0177
     11 C         142.9573  139.4983  161.1311 C.ar    1  UNL1        0.0745
     12 C         143.0636  138.5165  160.0020 C.ar    1  UNL1        0.1133
     13 N         143.5731  138.9644  158.6642 N.ar    1  UNL1       -0.2468
     14 C         139.8580  137.5107  164.9159 C.3     1  UNL1        0.1123
     15 C         138.6309  138.3237  165.2044 C.3     1  UNL1        0.0944
     16 N         138.6233  139.7967  164.9212 N.3     1  UNL1       -0.2637
     17 C         137.9370  140.4696  163.7697 C.3     1  UNL1        0.0992
     18 C         138.1903  141.9442  163.8766 C.ar    1  UNL1       -0.0088
     19 C         137.7624  143.1007  163.0225 C.ar    1  UNL1       -0.0032
     20 C         138.1773  144.4955  163.3862 C.ar    1  UNL1       -0.0003
     21 C         139.0202  144.7339  164.6038 C.ar    1  UNL1       -0.0003
     22 C         139.4481  143.5774  165.4579 C.ar    1  UNL1       -0.0032
     23 C         139.0332  142.1826  165.0943 C.ar    1  UNL1       -0.0088
     24 C         139.3008  140.8554  165.7398 C.3     1  UNL1        0.0992
@<TRIPOS>BOND
     1     7     8    1
     2     8     9   ar
     3     9    10   ar
     4    10    11   ar
     5    11     1    1
     6     1     2    1
     7     2     3    1
     8     3     4    1
     9     4    14    1
    10    14    15    1
    11    15    16    1
    12    16    17    1
    13    17    18    1
    14    18    19   ar
    15    19    20   ar
    16    20    21   ar
    17    21    22   ar
    18    22    23   ar
    19    23    24    1
    20     4     5   am
    21     5     6    2
    22    11    12   ar
    23    12    13   ar
    24    13     8   ar
    25     5     1   am
    26    24    16    1
    27    23    18   ar
@<TRIPOS>MOLECULE
*****
 24 27 0 0 0
SMALL
GASTEIGER

@<TRIPOS>ATOM
      1 N         141.1903  138.4113  161.4627 N.am    1  UNL1       -0.2398
      2 C         142.6720  138.1878  161.3960 C.3     1  UNL1        0.1213
      3 C         143.0627  138.0974  159.9506 C.3     1  UNL1        0.1169
      4 N         141.8223  138.2650  159.1239 N.am    1  UNL1       -0.2606
      5 C         140.6651  138.4590  160.0584 C.2     1  UNL1        0.3111
      6 O         139.2340  138.6646  159.6589 O.2     1  UNL1       -0.2520
      7 C         137.9355  139.0096  166.4675 C.3     1  UNL1        0.0521
      8 C         138.7493  138.8601  165.2162 C.ar    1  UNL1        0.0595
      9 C         139.5050  137.5899  164.9605 C.ar    1  UNL1        0.0160
     10 C         140.3187  137.4402  163.7093 C.ar    1  UNL1        0.0177
     11 C         140.3766  138.5608  162.7139 C.ar    1  UNL1        0.0745
     12 C         139.6208  139.8310  162.9696 C.ar    1  UNL1        0.1133
     13 N         138.8072  139.9806  164.2208 N.ar    1  UNL1       -0.2468
     14 C         141.7515  138.2425  157.6257 C.3     1  UNL1        0.1123
     15 C         142.7912  137.5032  156.8368 C.3     1  UNL1        0.0944
     16 N         142.6386  136.0317  156.5887 N.3     1  UNL1       -0.2637
     17 C         141.6818  135.3946  155.6251 C.3     1  UNL1        0.0992
     18 C         141.8679  133.9081  155.7015 C.ar    1  UNL1       -0.0088
     19 C         141.1998  132.7746  154.9812 C.ar    1  UNL1       -0.0032
     20 C         141.6037  131.3596  155.2717 C.ar    1  UNL1       -0.0003
     21 C         142.6757  131.0780  156.2825 C.ar    1  UNL1       -0.0003
     22 C         143.3437  132.2115  157.0028 C.ar    1  UNL1       -0.0032
     23 C         142.9399  133.6266  156.7122 C.ar    1  UNL1       -0.0088
     24 C         143.4162  134.9390  157.2605 C.3     1  UNL1        0.0992
@<TRIPOS>BOND
     1     7     8    1
     2     8     9   ar
     3     9    10   ar
     4    10    11   ar
     5    11     1    1
     6     1     2    1
     7     2     3    1
     8     3     4    1
     9     4    14    1
    10    14    15    1
    11    15    16    1
    12    16    17    1
    13    17    18    1
    14    18    19   ar
    15    19    20   ar
    16    20    21   ar
    17    21    22   ar
    18    22    23   ar
    19    23    24    1
    20     4     5   am
    21     5     6    2
    22    11    12   ar
    23    12    13   ar
    24    13     8   ar
    25     5     1   am
    26    24    16    1
    27    23    18   ar
@<TRIPOS>MOLECULE
*****
 24 27 0 0 0
SMALL
GASTEIGER

@<TRIPOS>ATOM
      1 N         141.4536  144.3199  161.6790 N.am    1  UNL1       -0.2398
      2 C         142.4300  144.1626  162.8068 C.3     1  UNL1        0.1213
      3 C         141.6763  144.3053  164.0958 C.3     1  UNL1        0.1169
      4 N         140.2340  144.5508  163.7647 N.am    1  UNL1       -0.2606
      5 C         140.0964  144.5599  162.2710 C.2     1  UNL1        0.3111
      6 O         138.8248  144.7716  161.5040 O.2     1  UNL1       -0.2520
      7 C         142.7495  144.0386  155.8274 C.3     1  UNL1        0.0521
      8 C         142.4255  144.1089  157.2904 C.ar    1  UNL1        0.0595
      9 C         141.6666  145.2827  157.8349 C.ar    1  UNL1        0.0160
     10 C         141.3426  145.3530  159.2978 C.ar    1  UNL1        0.0177
     11 C         141.7775  144.2497  160.2162 C.ar    1  UNL1        0.0745
     12 C         142.5365  143.0759  159.6716 C.ar    1  UNL1        0.1133
     13 N         142.8605  143.0056  158.2087 N.ar    1  UNL1       -0.2468
     14 C         139.1242  144.7520  164.7536 C.3     1  UNL1        0.1123
     15 C         137.9232  143.8538  164.7261 C.3     1  UNL1        0.0944
     16 N         138.0515  142.4449  164.2275 N.3     1  UNL1       -0.2637
     17 C         137.5312  141.9208  162.9219 C.3     1  UNL1        0.0992
     18 C         137.8808  140.4648  162.8345 C.ar    1  UNL1       -0.0088
     19 C         137.6237  139.4326  161.7770 C.ar    1  UNL1       -0.0032
     20 C         138.1031  138.0246  161.9710 C.ar    1  UNL1       -0.0003
     21 C         138.8394  137.6487  163.2226 C.ar    1  UNL1       -0.0003
     22 C         139.0965  138.6809  164.2802 C.ar    1  UNL1       -0.0032
     23 C         138.6172  140.0889  164.0861 C.ar    1  UNL1       -0.0088
     24 C         138.7227  141.3128  164.9470 C.3     1  UNL1        0.0992
@<TRIPOS>BOND
     1     7     8    1
     2     8     9   ar
     3     9    10   ar
     4    10    11   ar
     5    11     1    1
     6     1     2    1
     7     2     3    1
     8     3     4    1
     9     4    14    1
    10    14    15    1
    11    15    16    1
    12    16    17    1
    13    17    18    1
    14    18    19   ar
    15    19    20   ar
    16    20    21   ar
    17    21    22   ar
    18    22    23   ar
    19    23    24    1
    20     4     5   am
    21     5     6    2
    22    11    12   ar
    23    12    13   ar
    24    13     8   ar
    25     5     1   am
    26    24    16    1
    27    23    18   ar
