@<TRIPOS>MOLECULE
*****
 29 31 0 0 0
SMALL
GASTEIGER

@<TRIPOS>ATOM
      1 C         140.6020  140.8688  164.9502 C.ar    1  UNL1        0.2030
      2 C         140.5612  142.1584  165.7152 C.ar    1  UNL1        0.0646
      3 C         141.8387  142.8549  166.0797 C.ar    1  UNL1        0.0115
      4 C         143.1570  142.2619  165.6792 C.ar    1  UNL1        0.0646
      5 C         143.1978  140.9722  164.9141 C.ar    1  UNL1        0.2030
      6 N         141.9203  140.2757  164.5497 N.ar    1  UNL1       -0.1706
      7 C         141.9610  138.9861  163.7847 C.3     1  UNL1        0.4076
      8 C         139.3245  140.1723  164.5857 C.3     1  UNL1        0.1006
      9 C         138.3228  139.8369  165.6508 C.3     1  UNL1        0.0584
     10 C         138.7054  138.9271  166.7804 C.3     1  UNL1        0.2060
     11 O         138.8293  139.4713  168.1727 O.3     1  UNL1       -0.4754
     12 C         143.8337  142.3293  169.8425 C.3     1  UNL1        0.0310
     13 C         142.5826  141.6148  169.4250 C.ar    1  UNL1       -0.0217
     14 C         142.6733  140.3027  168.7039 C.ar    1  UNL1       -0.0011
     15 C         141.4222  139.5882  168.2864 C.ar    1  UNL1        0.0366
     16 C         140.0804  140.1858  168.5901 C.ar    1  UNL1        0.1385
     17 C         139.9896  141.4979  169.3113 C.ar    1  UNL1        0.0366
     18 C         141.2407  142.2124  169.7288 C.ar    1  UNL1       -0.0011
     19 C         144.5160  140.3791  164.5136 C.3     1  UNL1        0.1006
     20 C         145.5209  141.2137  163.7763 C.3     1  UNL1        0.0584
     21 C         145.1986  141.7429  162.4102 C.3     1  UNL1        0.2060
     22 O         144.8596  143.1927  162.2283 O.3     1  UNL1       -0.4754
     23 C         143.4593  143.6719  162.4727 C.ar    1  UNL1        0.1385
     24 C         142.2951  142.8865  161.9456 C.ar    1  UNL1        0.0366
     25 C         140.8949  143.3657  162.1899 C.ar    1  UNL1       -0.0011
     26 C         140.6588  144.6303  162.9614 C.ar    1  UNL1       -0.0217
     27 C         139.2586  145.1095  163.2058 C.3     1  UNL1        0.0310
     28 C         141.8230  145.4157  163.4885 C.ar    1  UNL1       -0.0011
     29 C         143.2233  144.9365  163.2441 C.ar    1  UNL1        0.0366
@<TRIPOS>UNITY_ATOM_ATTR
6 1
charge 1
@<TRIPOS>BOND
     1    12    13    1
     2    13    14   ar
     3    14    15   ar
     4    15    16   ar
     5    16    11    1
     6    11    10    1
     7    10     9    1
     8     9     8    1
     9     8     1    1
    10     1     2   ar
    11     2     3   ar
    12     3     4   ar
    13     4     5   ar
    14     5    19    1
    15    19    20    1
    16    20    21    1
    17    21    22    1
    18    22    23    1
    19    23    24   ar
    20    24    25   ar
    21    25    26   ar
    22    26    27    1
    23    26    28   ar
    24    28    29   ar
    25     5     6   ar
    26     6     7    1
    27    16    17   ar
    28    17    18   ar
    29    18    13   ar
    30     6     1   ar
    31    29    23   ar
@<TRIPOS>MOLECULE
*****
 29 31 0 0 0
SMALL
GASTEIGER

@<TRIPOS>ATOM
      1 C         142.9090  139.9216  163.1775 C.ar    1  UNL1        0.2030
      2 C         142.4227  140.8680  162.1203 C.ar    1  UNL1        0.0646
      3 C         140.9690  141.2311  162.0499 C.ar    1  UNL1        0.0115
      4 C         140.0016  140.6476  163.0366 C.ar    1  UNL1        0.0646
      5 C         140.4879  139.7012  164.0939 C.ar    1  UNL1        0.2030
      6 N         141.9416  139.3381  164.1644 N.ar    1  UNL1       -0.1706
      7 C         142.4279  138.3917  165.2216 C.3     1  UNL1        0.4076
      8 C         144.3627  139.5586  163.2480 C.3     1  UNL1        0.1006
      9 C         145.2952  140.3604  164.1069 C.3     1  UNL1        0.0584
     10 C         145.5366  141.8091  163.8021 C.3     1  UNL1        0.2060
     11 O         145.0421  142.8662  164.7444 O.3     1  UNL1       -0.4754
     12 C         139.1536  143.8770  165.2958 C.3     1  UNL1        0.0310
     13 C         140.6257  143.6243  165.1579 C.ar    1  UNL1       -0.0217
     14 C         141.3093  142.6543  166.0753 C.ar    1  UNL1       -0.0011
     15 C         142.7814  142.4016  165.9375 C.ar    1  UNL1        0.0366
     16 C         143.5699  143.1189  164.8823 C.ar    1  UNL1        0.1385
     17 C         142.8864  144.0890  163.9649 C.ar    1  UNL1        0.0366
     18 C         141.4142  144.3417  164.1027 C.ar    1  UNL1       -0.0011
     19 C         139.5205  139.1177  165.0807 C.3     1  UNL1        0.1006
     20 C         139.0721  139.9284  166.2604 C.3     1  UNL1        0.0584
     21 C         138.4227  139.2525  167.4316 C.3     1  UNL1        0.2060
     22 O         138.8180  139.6292  168.8287 O.3     1  UNL1       -0.4754
     23 C         140.1106  140.3497  169.0740 C.ar    1  UNL1        0.1385
     24 C         141.4152  139.6310  168.8969 C.ar    1  UNL1        0.0366
     25 C         142.7077  140.3515  169.1422 C.ar    1  UNL1       -0.0011
     26 C         142.6957  141.7908  169.5645 C.ar    1  UNL1       -0.0217
     27 C         143.9882  142.5113  169.8098 C.3     1  UNL1        0.0310
     28 C         141.3910  142.5096  169.7416 C.ar    1  UNL1       -0.0011
     29 C         140.0985  141.7890  169.4963 C.ar    1  UNL1        0.0366
@<TRIPOS>UNITY_ATOM_ATTR
6 1
charge 1
@<TRIPOS>BOND
     1    12    13    1
     2    13    14   ar
     3    14    15   ar
     4    15    16   ar
     5    16    11    1
     6    11    10    1
     7    10     9    1
     8     9     8    1
     9     8     1    1
    10     1     2   ar
    11     2     3   ar
    12     3     4   ar
    13     4     5   ar
    14     5    19    1
    15    19    20    1
    16    20    21    1
    17    21    22    1
    18    22    23    1
    19    23    24   ar
    20    24    25   ar
    21    25    26   ar
    22    26    27    1
    23    26    28   ar
    24    28    29   ar
    25     5     6   ar
    26     6     7    1
    27    16    17   ar
    28    17    18   ar
    29    18    13   ar
    30     6     1   ar
    31    29    23   ar
@<TRIPOS>MOLECULE
*****
 29 31 0 0 0
SMALL
GASTEIGER

@<TRIPOS>ATOM
      1 C         140.1541  144.1883  164.7896 C.ar    1  UNL1        0.2030
      2 C         140.3948  143.1535  165.8484 C.ar    1  UNL1        0.0646
      3 C         141.7582  142.5493  166.0104 C.ar    1  UNL1        0.0115
      4 C         142.8808  142.9801  165.1137 C.ar    1  UNL1        0.0646
      5 C         142.6401  144.0150  164.0549 C.ar    1  UNL1        0.2030
      6 N         141.2768  144.6191  163.8928 N.ar    1  UNL1       -0.1706
      7 C         141.0360  145.6540  162.8341 C.3     1  UNL1        0.4076
      8 C         138.7907  144.7925  164.6276 C.3     1  UNL1        0.1006
      9 C         137.6956  144.0068  163.9691 C.3     1  UNL1        0.0584
     10 C         137.9392  143.3449  162.6453 C.3     1  UNL1        0.2060
     11 O         137.3174  142.0129  162.3470 O.3     1  UNL1       -0.4754
     12 C         139.2537  137.0948  165.1866 C.3     1  UNL1        0.0310
     13 C         138.7696  138.3243  164.4767 C.ar    1  UNL1       -0.0217
     14 C         138.6046  138.3136  162.9859 C.ar    1  UNL1       -0.0011
     15 C         138.1205  139.5431  162.2760 C.ar    1  UNL1        0.0366
     16 C         137.8015  140.7833  163.0569 C.ar    1  UNL1        0.1385
     17 C         137.9665  140.7941  164.5477 C.ar    1  UNL1        0.0366
     18 C         138.4506  139.5646  165.2576 C.ar    1  UNL1       -0.0011
     19 C         143.7627  144.4457  163.1582 C.3     1  UNL1        0.1006
     20 C         144.2721  143.5177  162.0955 C.3     1  UNL1        0.0584
     21 C         143.3050  142.7626  161.2327 C.3     1  UNL1        0.2060
     22 O         143.3300  141.2630  161.2132 O.3     1  UNL1       -0.4754
     23 C         143.4164  140.4976  162.5004 C.ar    1  UNL1        0.1385
     24 C         144.7503  140.2618  163.1447 C.ar    1  UNL1        0.0366
     25 C         144.8367  139.4964  164.4318 C.ar    1  UNL1       -0.0011
     26 C         143.5892  138.9668  165.0747 C.ar    1  UNL1       -0.0217
     27 C         143.6757  138.2014  166.3618 C.3     1  UNL1        0.0310
     28 C         142.2553  139.2025  164.4304 C.ar    1  UNL1       -0.0011
     29 C         142.1689  139.9680  163.1433 C.ar    1  UNL1        0.0366
@<TRIPOS>UNITY_ATOM_ATTR
6 1
charge 1
@<TRIPOS>BOND
     1    12    13    1
     2    13    14   ar
     3    14    15   ar
     4    15    16   ar
     5    16    11    1
     6    11    10    1
     7    10     9    1
     8     9     8    1
     9     8     1    1
    10     1     2   ar
    11     2     3   ar
    12     3     4   ar
    13     4     5   ar
    14     5    19    1
    15    19    20    1
    16    20    21    1
    17    21    22    1
    18    22    23    1
    19    23    24   ar
    20    24    25   ar
    21    25    26   ar
    22    26    27    1
    23    26    28   ar
    24    28    29   ar
    25     5     6   ar
    26     6     7    1
    27    16    17   ar
    28    17    18   ar
    29    18    13   ar
    30     6     1   ar
    31    29    23   ar
@<TRIPOS>MOLECULE
*****
 29 31 0 0 0
SMALL
GASTEIGER

@<TRIPOS>ATOM
      1 C         139.9879  140.3950  163.9836 C.ar    1  UNL1        0.2030
      2 C         140.7305  139.5195  163.0182 C.ar    1  UNL1        0.0646
      3 C         141.6725  140.1305  162.0235 C.ar    1  UNL1        0.0115
      4 C         141.8720  141.6168  161.9943 C.ar    1  UNL1        0.0646
      5 C         141.1294  142.4924  162.9598 C.ar    1  UNL1        0.2030
      6 N         140.1873  141.8814  163.9545 N.ar    1  UNL1       -0.1706
      7 C         139.4447  142.7569  164.9199 C.3     1  UNL1        0.4076
      8 C         139.0458  139.7840  164.9783 C.3     1  UNL1        0.1006
      9 C         139.5206  139.4700  166.3661 C.3     1  UNL1        0.0584
     10 C         138.5314  139.3443  167.4867 C.3     1  UNL1        0.2060
     11 O         138.9374  139.6924  168.8881 O.3     1  UNL1       -0.4754
     12 C         144.1172  142.5505  169.8886 C.3     1  UNL1        0.0310
     13 C         142.8222  141.8360  169.6385 C.ar    1  UNL1       -0.0217
     14 C         141.5901  142.6168  169.2894 C.ar    1  UNL1       -0.0011
     15 C         140.2951  141.9023  169.0392 C.ar    1  UNL1        0.0366
     16 C         140.2323  140.4069  169.1382 C.ar    1  UNL1        0.1385
     17 C         141.4645  139.6260  169.4874 C.ar    1  UNL1        0.0366
     18 C         142.7595  140.3406  169.7375 C.ar    1  UNL1       -0.0011
     19 C         141.3288  143.9787  162.9306 C.3     1  UNL1        0.1006
     20 C         142.7044  144.5474  162.7449 C.3     1  UNL1        0.0584
     21 C         143.4308  145.1493  163.9110 C.3     1  UNL1        0.2060
     22 O         144.4054  144.3220  164.6957 O.3     1  UNL1       -0.4754
     23 C         144.1425  142.8617  164.9163 C.ar    1  UNL1        0.1385
     24 C         143.1392  142.4270  165.9431 C.ar    1  UNL1        0.0366
     25 C         142.8763  140.9668  166.1636 C.ar    1  UNL1       -0.0011
     26 C         143.6168  139.9413  165.3574 C.ar    1  UNL1       -0.0217
     27 C         143.3539  138.4811  165.5780 C.3     1  UNL1        0.0310
     28 C         144.6201  140.3760  164.3306 C.ar    1  UNL1       -0.0011
     29 C         144.8830  141.8363  164.1100 C.ar    1  UNL1        0.0366
@<TRIPOS>UNITY_ATOM_ATTR
6 1
charge 1
@<TRIPOS>BOND
     1    12    13    1
     2    13    14   ar
     3    14    15   ar
     4    15    16   ar
     5    16    11    1
     6    11    10    1
     7    10     9    1
     8     9     8    1
     9     8     1    1
    10     1     2   ar
    11     2     3   ar
    12     3     4   ar
    13     4     5   ar
    14     5    19    1
    15    19    20    1
    16    20    21    1
    17    21    22    1
    18    22    23    1
    19    23    24   ar
    20    24    25   ar
    21    25    26   ar
    22    26    27    1
    23    26    28   ar
    24    28    29   ar
    25     5     6   ar
    26     6     7    1
    27    16    17   ar
    28    17    18   ar
    29    18    13   ar
    30     6     1   ar
    31    29    23   ar
@<TRIPOS>MOLECULE
*****
 29 31 0 0 0
SMALL
GASTEIGER

@<TRIPOS>ATOM
      1 C         141.7617  140.6373  164.7794 C.ar    1  UNL1        0.2030
      2 C         142.5240  141.8031  165.3359 C.ar    1  UNL1        0.0646
      3 C         141.8049  143.0733  165.6816 C.ar    1  UNL1        0.0115
      4 C         140.3235  143.1777  165.4708 C.ar    1  UNL1        0.0646
      5 C         139.5611  142.0119  164.9142 C.ar    1  UNL1        0.2030
      6 N         140.2802  140.7417  164.5685 N.ar    1  UNL1       -0.1706
      7 C         139.5179  139.5759  164.0120 C.3     1  UNL1        0.4076
      8 C         142.4808  139.3671  164.4337 C.3     1  UNL1        0.1006
      9 C         142.6924  138.3158  165.4825 C.3     1  UNL1        0.0584
     10 C         143.6111  138.5830  166.6377 C.3     1  UNL1        0.2060
     11 O         143.0530  138.7248  168.0227 O.3     1  UNL1       -0.4754
     12 C         140.3184  143.8118  169.6490 C.3     1  UNL1        0.0310
     13 C         141.0020  142.5401  169.2424 C.ar    1  UNL1       -0.0217
     14 C         140.1938  141.3842  168.7319 C.ar    1  UNL1       -0.0011
     15 C         140.8775  140.1124  168.3253 C.ar    1  UNL1        0.0366
     16 C         142.3693  139.9966  168.4293 C.ar    1  UNL1        0.1385
     17 C         143.1776  141.1525  168.9398 C.ar    1  UNL1        0.0366
     18 C         142.4939  142.4242  169.3463 C.ar    1  UNL1       -0.0011
     19 C         138.0797  142.1163  164.7034 C.3     1  UNL1        0.1006
     20 C         137.5416  142.6160  163.3954 C.3     1  UNL1        0.0584
     21 C         137.7494  144.0469  162.9965 C.3     1  UNL1        0.2060
     22 O         138.6610  144.3822  161.8535 O.3     1  UNL1       -0.4754
     23 C         140.1359  144.1364  161.9736 C.ar    1  UNL1        0.1385
     24 C         141.0299  145.2000  162.5391 C.ar    1  UNL1        0.0366
     25 C         142.5047  144.9543  162.6592 C.ar    1  UNL1       -0.0011
     26 C         143.0857  143.6450  162.2138 C.ar    1  UNL1       -0.0217
     27 C         144.5605  143.3993  162.3339 C.3     1  UNL1        0.0310
     28 C         142.1917  142.5814  161.6483 C.ar    1  UNL1       -0.0011
     29 C         140.7168  142.8272  161.5282 C.ar    1  UNL1        0.0366
@<TRIPOS>UNITY_ATOM_ATTR
6 1
charge 1
@<TRIPOS>BOND
     1    12    13    1
     2    13    14   ar
     3    14    15   ar
     4    15    16   ar
     5    16    11    1
     6    11    10    1
     7    10     9    1
     8     9     8    1
     9     8     1    1
    10     1     2   ar
    11     2     3   ar
    12     3     4   ar
    13     4     5   ar
    14     5    19    1
    15    19    20    1
    16    20    21    1
    17    21    22    1
    18    22    23    1
    19    23    24   ar
    20    24    25   ar
    21    25    26   ar
    22    26    27    1
    23    26    28   ar
    24    28    29   ar
    25     5     6   ar
    26     6     7    1
    27    16    17   ar
    28    17    18   ar
    29    18    13   ar
    30     6     1   ar
    31    29    23   ar
@<TRIPOS>MOLECULE
*****
 29 31 0 0 0
SMALL
GASTEIGER

@<TRIPOS>ATOM
      1 C         139.6333  141.5422  162.4152 C.ar    1  UNL1        0.2030
      2 C         140.6051  142.0534  161.3934 C.ar    1  UNL1        0.0646
      3 C         142.0197  141.5545  161.3881 C.ar    1  UNL1        0.0115
      4 C         142.4625  140.5443  162.4046 C.ar    1  UNL1        0.0646
      5 C         141.4906  140.0329  163.4265 C.ar    1  UNL1        0.2030
      6 N         140.0760  140.5319  163.4318 N.ar    1  UNL1       -0.1706
      7 C         139.1042  140.0206  164.4536 C.3     1  UNL1        0.4076
      8 C         138.2187  142.0411  162.4205 C.3     1  UNL1        0.1006
      9 C         137.9414  143.5079  162.5683 C.3     1  UNL1        0.0584
     10 C         137.8218  144.1145  163.9349 C.3     1  UNL1        0.2060
     11 O         138.9234  144.9804  164.4701 O.3     1  UNL1       -0.4754
     12 C         144.5160  142.8378  164.8329 C.3     1  UNL1        0.0310
     13 C         143.1179  143.3734  164.7422 C.ar    1  UNL1       -0.0217
     14 C         142.0406  142.8107  165.6213 C.ar    1  UNL1       -0.0011
     15 C         140.6425  143.3464  165.5306 C.ar    1  UNL1        0.0366
     16 C         140.3216  144.4448  164.5608 C.ar    1  UNL1        0.1385
     17 C         141.3988  145.0075  163.6817 C.ar    1  UNL1        0.0366
     18 C         142.7970  144.4718  163.7725 C.ar    1  UNL1       -0.0011
     19 C         141.9334  139.0227  164.4430 C.3     1  UNL1        0.1006
     20 C         142.8844  139.4218  165.5321 C.3     1  UNL1        0.0584
     21 C         143.2382  138.4450  166.6141 C.3     1  UNL1        0.2060
     22 O         143.2152  138.8761  168.0506 O.3     1  UNL1       -0.4754
     23 C         142.4735  140.1176  168.4493 C.ar    1  UNL1        0.1385
     24 C         140.9736  140.1287  168.4461 C.ar    1  UNL1        0.0366
     25 C         140.2319  141.3700  168.8448 C.ar    1  UNL1       -0.0011
     26 C         140.9902  142.6003  169.2467 C.ar    1  UNL1       -0.0217
     27 C         140.2485  143.8416  169.6453 C.3     1  UNL1        0.0310
     28 C         142.4901  142.5892  169.2499 C.ar    1  UNL1       -0.0011
     29 C         143.2318  141.3478  168.8512 C.ar    1  UNL1        0.0366
@<TRIPOS>UNITY_ATOM_ATTR
6 1
charge 1
@<TRIPOS>BOND
     1    12    13    1
     2    13    14   ar
     3    14    15   ar
     4    15    16   ar
     5    16    11    1
     6    11    10    1
     7    10     9    1
     8     9     8    1
     9     8     1    1
    10     1     2   ar
    11     2     3   ar
    12     3     4   ar
    13     4     5   ar
    14     5    19    1
    15    19    20    1
    16    20    21    1
    17    21    22    1
    18    22    23    1
    19    23    24   ar
    20    24    25   ar
    21    25    26   ar
    22    26    27    1
    23    26    28   ar
    24    28    29   ar
    25     5     6   ar
    26     6     7    1
    27    16    17   ar
    28    17    18   ar
    29    18    13   ar
    30     6     1   ar
    31    29    23   ar
@<TRIPOS>MOLECULE
*****
 29 31 0 0 0
SMALL
GASTEIGER

@<TRIPOS>ATOM
      1 C         141.7867  137.8163  163.7315 C.ar    1  UNL1        0.2030
      2 C         141.6899  137.7618  162.2356 C.ar    1  UNL1        0.0646
      3 C         142.7489  138.4068  161.3916 C.ar    1  UNL1        0.0115
      4 C         143.9046  139.1064  162.0433 C.ar    1  UNL1        0.0646
      5 C         144.0015  139.1609  163.5392 C.ar    1  UNL1        0.2030
      6 N         142.9425  138.5159  164.3833 N.ar    1  UNL1       -0.1706
      7 C         143.0393  138.5704  165.8792 C.3     1  UNL1        0.4076
      8 C         140.7278  137.1712  164.5756 C.3     1  UNL1        0.1006
      9 C         139.3362  137.7310  164.5904 C.3     1  UNL1        0.0584
     10 C         138.9953  138.8690  165.5062 C.3     1  UNL1        0.2060
     11 O         138.0702  139.9545  165.0415 O.3     1  UNL1       -0.4754
     12 C         139.6211  143.4395  160.4102 C.3     1  UNL1        0.0310
     13 C         139.2334  142.5682  161.5680 C.ar    1  UNL1       -0.0217
     14 C         140.2504  141.6654  162.2009 C.ar    1  UNL1       -0.0011
     15 C         139.8626  140.7942  163.3587 C.ar    1  UNL1        0.0366
     16 C         138.4579  140.8257  163.8837 C.ar    1  UNL1        0.1385
     17 C         137.4409  141.7285  163.2508 C.ar    1  UNL1        0.0366
     18 C         137.8286  142.5998  162.0930 C.ar    1  UNL1       -0.0011
     19 C         145.1572  139.8605  164.1910 C.3     1  UNL1        0.1006
     20 C         145.5665  141.2264  163.7253 C.3     1  UNL1        0.0584
     21 C         144.7656  142.4282  164.1305 C.3     1  UNL1        0.2060
     22 O         143.8804  142.3666  165.3399 O.3     1  UNL1       -0.4754
     23 C         142.5022  142.9569  165.2914 C.ar    1  UNL1        0.1385
     24 C         141.4549  142.4972  166.2619 C.ar    1  UNL1        0.0366
     25 C         140.0768  143.0875  166.2134 C.ar    1  UNL1       -0.0011
     26 C         139.7460  144.1374  165.1945 C.ar    1  UNL1       -0.0217
     27 C         138.3679  144.7277  165.1460 C.3     1  UNL1        0.0310
     28 C         140.7933  144.5971  164.2240 C.ar    1  UNL1       -0.0011
     29 C         142.1715  144.0068  164.2725 C.ar    1  UNL1        0.0366
@<TRIPOS>UNITY_ATOM_ATTR
6 1
charge 1
@<TRIPOS>BOND
     1    12    13    1
     2    13    14   ar
     3    14    15   ar
     4    15    16   ar
     5    16    11    1
     6    11    10    1
     7    10     9    1
     8     9     8    1
     9     8     1    1
    10     1     2   ar
    11     2     3   ar
    12     3     4   ar
    13     4     5   ar
    14     5    19    1
    15    19    20    1
    16    20    21    1
    17    21    22    1
    18    22    23    1
    19    23    24   ar
    20    24    25   ar
    21    25    26   ar
    22    26    27    1
    23    26    28   ar
    24    28    29   ar
    25     5     6   ar
    26     6     7    1
    27    16    17   ar
    28    17    18   ar
    29    18    13   ar
    30     6     1   ar
    31    29    23   ar
@<TRIPOS>MOLECULE
*****
 29 31 0 0 0
SMALL
GASTEIGER

@<TRIPOS>ATOM
      1 C         143.6469  139.1359  164.6222 C.ar    1  UNL1        0.2030
      2 C         143.0778  139.4660  165.9701 C.ar    1  UNL1        0.0646
      3 C         141.6323  139.1909  166.2618 C.ar    1  UNL1        0.0115
      4 C         140.7560  138.5857  165.2056 C.ar    1  UNL1        0.0646
      5 C         141.3251  138.2556  163.8575 C.ar    1  UNL1        0.2030
      6 N         142.7705  138.5307  163.5658 N.ar    1  UNL1       -0.1706
      7 C         143.3396  138.2005  162.2178 C.3     1  UNL1        0.4076
      8 C         145.0923  139.4110  164.3304 C.3     1  UNL1        0.1006
      9 C         145.5306  140.7943  163.9502 C.3     1  UNL1        0.0584
     10 C         144.7073  141.6057  162.9944 C.3     1  UNL1        0.2060
     11 O         144.6912  143.1018  163.1013 O.3     1  UNL1       -0.4754
     12 C         139.6737  146.1451  161.8509 C.3     1  UNL1        0.0310
     13 C         140.9281  145.3843  162.1635 C.ar    1  UNL1       -0.0217
     14 C         141.4505  144.3678  161.1921 C.ar    1  UNL1       -0.0011
     15 C         142.7049  143.6070  161.5046 C.ar    1  UNL1        0.0366
     16 C         143.4368  143.8626  162.7887 C.ar    1  UNL1        0.1385
     17 C         142.9144  144.8791  163.7602 C.ar    1  UNL1        0.0366
     18 C         141.6600  145.6399  163.4476 C.ar    1  UNL1       -0.0011
     19 C         140.4488  137.6504  162.8012 C.3     1  UNL1        0.1006
     20 C         138.9767  137.9382  162.7926 C.3     1  UNL1        0.0584
     21 C         138.4144  138.9419  161.8301 C.3     1  UNL1        0.2060
     22 O         139.1415  140.2297  161.5794 O.3     1  UNL1       -0.4754
     23 C         138.9953  141.3728  162.5396 C.ar    1  UNL1        0.1385
     24 C         140.0299  141.5967  163.6023 C.ar    1  UNL1        0.0366
     25 C         139.8837  142.7397  164.5625 C.ar    1  UNL1       -0.0011
     26 C         138.7028  143.6590  164.4600 C.ar    1  UNL1       -0.0217
     27 C         138.5565  144.8020  165.4202 C.3     1  UNL1        0.0310
     28 C         137.6681  143.4351  163.3973 C.ar    1  UNL1       -0.0011
     29 C         137.8144  142.2920  162.4370 C.ar    1  UNL1        0.0366
@<TRIPOS>UNITY_ATOM_ATTR
6 1
charge 1
@<TRIPOS>BOND
     1    12    13    1
     2    13    14   ar
     3    14    15   ar
     4    15    16   ar
     5    16    11    1
     6    11    10    1
     7    10     9    1
     8     9     8    1
     9     8     1    1
    10     1     2   ar
    11     2     3   ar
    12     3     4   ar
    13     4     5   ar
    14     5    19    1
    15    19    20    1
    16    20    21    1
    17    21    22    1
    18    22    23    1
    19    23    24   ar
    20    24    25   ar
    21    25    26   ar
    22    26    27    1
    23    26    28   ar
    24    28    29   ar
    25     5     6   ar
    26     6     7    1
    27    16    17   ar
    28    17    18   ar
    29    18    13   ar
    30     6     1   ar
    31    29    23   ar
@<TRIPOS>MOLECULE
*****
 29 31 0 0 0
SMALL
GASTEIGER

@<TRIPOS>ATOM
      1 C         143.4551  139.9215  163.7068 C.ar    1  UNL1        0.2030
      2 C         143.7926  139.4187  165.0791 C.ar    1  UNL1        0.0646
      3 C         142.9723  138.3275  165.7008 C.ar    1  UNL1        0.0115
      4 C         141.8146  137.7392  164.9502 C.ar    1  UNL1        0.0646
      5 C         141.4771  138.2420  163.5778 C.ar    1  UNL1        0.2030
      6 N         142.2973  139.3332  162.9561 N.ar    1  UNL1       -0.1706
      7 C         141.9599  139.8361  161.5838 C.3     1  UNL1        0.4076
      8 C         144.2754  141.0127  163.0852 C.3     1  UNL1        0.1006
      9 C         144.0479  142.4412  163.4826 C.3     1  UNL1        0.0584
     10 C         144.5052  143.5516  162.5838 C.3     1  UNL1        0.2060
     11 O         143.5007  144.4786  161.9662 O.3     1  UNL1       -0.4754
     12 C         137.7194  144.1086  163.5283 C.3     1  UNL1        0.0310
     13 C         139.1647  144.2011  163.1377 C.ar    1  UNL1       -0.0217
     14 C         140.1122  145.0245  163.9588 C.ar    1  UNL1       -0.0011
     15 C         141.5575  145.1170  163.5683 C.ar    1  UNL1        0.0366
     16 C         142.0553  144.3861  162.3567 C.ar    1  UNL1        0.1385
     17 C         141.1078  143.5627  161.5357 C.ar    1  UNL1        0.0366
     18 C         139.6625  143.4702  161.9262 C.ar    1  UNL1       -0.0011
     19 C         140.3193  137.6537  162.8272 C.3     1  UNL1        0.1006
     20 C         138.9162  137.9115  163.2905 C.3     1  UNL1        0.0584
     21 C         138.4758  139.3101  163.6065 C.3     1  UNL1        0.2060
     22 O         138.2757  139.7293  165.0328 O.3     1  UNL1       -0.4754
     23 C         139.4068  140.3506  165.7976 C.ar    1  UNL1        0.1385
     24 C         140.2288  141.4372  165.1702 C.ar    1  UNL1        0.0366
     25 C         141.3598  142.0584  165.9349 C.ar    1  UNL1       -0.0011
     26 C         141.6688  141.5931  167.3271 C.ar    1  UNL1       -0.0217
     27 C         142.7998  142.2144  168.0918 C.3     1  UNL1        0.0310
     28 C         140.8468  140.5065  167.9545 C.ar    1  UNL1       -0.0011
     29 C         139.7157  139.8852  167.1897 C.ar    1  UNL1        0.0366
@<TRIPOS>UNITY_ATOM_ATTR
6 1
charge 1
@<TRIPOS>BOND
     1    12    13    1
     2    13    14   ar
     3    14    15   ar
     4    15    16   ar
     5    16    11    1
     6    11    10    1
     7    10     9    1
     8     9     8    1
     9     8     1    1
    10     1     2   ar
    11     2     3   ar
    12     3     4   ar
    13     4     5   ar
    14     5    19    1
    15    19    20    1
    16    20    21    1
    17    21    22    1
    18    22    23    1
    19    23    24   ar
    20    24    25   ar
    21    25    26   ar
    22    26    27    1
    23    26    28   ar
    24    28    29   ar
    25     5     6   ar
    26     6     7    1
    27    16    17   ar
    28    17    18   ar
    29    18    13   ar
    30     6     1   ar
    31    29    23   ar
