@<TRIPOS>MOLECULE
*****
 36 40 0 0 0
SMALL
GASTEIGER

@<TRIPOS>ATOM
      1 C         141.7127  143.9128  161.3540 C.2     1  UNL1        0.1518
      2 N         143.0864  144.4202  161.6789 N.2     1  UNL1       -0.1775
      3 C         141.0580  142.8982  162.2440 C.ar    1  UNL1        0.0237
      4 C         140.1641  143.3468  163.3619 C.ar    1  UNL1        0.0030
      5 C         139.5094  142.3322  164.2518 C.ar    1  UNL1        0.0184
      6 C         139.7486  140.8690  164.0239 C.ar    1  UNL1        0.1056
      7 C         140.6425  140.4205  162.9060 C.ar    1  UNL1        0.0184
      8 C         141.2972  141.4350  162.0160 C.ar    1  UNL1        0.0030
      9 S         139.0940  139.8544  164.9138 S.O2    1  UNL1        0.0070
     10 O         137.7676  140.1553  164.2811 O.2     1  UNL1       -0.1687
     11 O         140.4204  139.5536  165.5465 O.2     1  UNL1       -0.1687
     12 C         138.4394  138.8398  165.8037 C.3     1  UNL1        0.1339
     13 C         138.1073  137.4118  166.1209 C.3     1  UNL1        0.0257
     14 C         137.6376  138.5103  167.0279 C.3     1  UNL1        0.0257
     15 N         143.8053  143.9130  162.8938 N.pl3   1  UNL1       -0.2327
     16 C         143.7420  144.5092  164.2688 C.3     1  UNL1        0.1110
     17 C         144.6113  143.6853  165.1717 C.3     1  UNL1        0.0250
     18 C         145.2120  142.5798  164.3548 C.3     1  UNL1        0.0250
     19 C         144.7138  142.7206  162.9470 C.3     1  UNL1        0.1110
     20 N         141.4641  144.0262  158.7703 N.am    1  UNL1       -0.2593
     21 C         140.9938  144.4200  160.1391 C.2     1  UNL1        0.2702
     22 O         139.8045  145.3209  160.2931 O.2     1  UNL1       -0.2681
     23 H         142.2447  143.4348  158.6693 H       1  UNL1        0.1571
     24 C         140.2108  145.7768  155.5408 C.ar    1  UNL1        0.0451
     25 C         139.0670  144.8508  155.8311 C.ar    1  UNL1        0.1044
     26 N         139.3973  144.0822  157.0763 N.ar    1  UNL1       -0.2227
     27 C         140.7452  144.5333  157.5555 C.ar    1  UNL1        0.1656
     28 S         141.2480  145.5806  156.6066 S.2     1  UNL1       -0.0543
     29 C         140.3015  146.7314  154.3874 C.3     1  UNL1        0.1074
     30 C         138.4555  152.4035  155.0351 C.3     1  UNL1        0.0897
     31 N         138.9170  150.9855  154.8732 N.3     1  UNL1       -0.2691
     32 C         138.4609  149.9333  155.8400 C.3     1  UNL1        0.0897
     33 C         138.9224  148.5152  155.6781 C.3     1  UNL1        0.0899
     34 N         139.8400  148.1494  154.5493 N.3     1  UNL1       -0.2661
     35 C         140.2961  149.2016  153.5825 C.3     1  UNL1        0.0899
     36 C         139.8346  150.6196  153.7444 C.3     1  UNL1        0.0897
@<TRIPOS>BOND
     1    30    31    1
     2    31    32    1
     3    32    33    1
     4    33    34    1
     5    34    29    1
     6    29    24    1
     7    24    25   ar
     8    25    26   ar
     9    26    27   ar
    10    27    20    1
    11    20    21   am
    12    21    22    2
    13    21     1    1
    14     1     2    2
    15     2    15    1
    16    15    16    1
    17    16    17    1
    18    17    18    1
    19    18    19    1
    20     1     3    1
    21     3     4   ar
    22     4     5   ar
    23     5     6   ar
    24     6     9    1
    25     9    10    2
    26     9    11    2
    27     9    12    1
    28    12    13    1
    29    13    14    1
    30     6     7   ar
    31     7     8   ar
    32    27    28   ar
    33    34    35    1
    34    35    36    1
    35    36    31    1
    36    28    24   ar
    37    19    15    1
    38     8     3   ar
    39    14    12    1
    40    20    23    1
@<TRIPOS>MOLECULE
*****
 36 40 0 0 0
SMALL
GASTEIGER

@<TRIPOS>ATOM
      1 C         139.8219  140.6601  162.2030 C.2     1  UNL1        0.1518
      2 N         139.0870  141.9289  161.8869 N.2     1  UNL1       -0.1775
      3 C         140.3321  140.4152  163.5922 C.ar    1  UNL1        0.0237
      4 C         141.7287  140.8200  163.9605 C.ar    1  UNL1        0.0030
      5 C         142.2388  140.5750  165.3498 C.ar    1  UNL1        0.0184
      6 C         141.3524  139.9252  166.3705 C.ar    1  UNL1        0.1056
      7 C         139.9558  139.5204  166.0022 C.ar    1  UNL1        0.0184
      8 C         139.4456  139.7654  164.6131 C.ar    1  UNL1        0.0030
      9 S         141.8625  139.6803  167.7597 S.O2    1  UNL1        0.0070
     10 O         143.1700  139.2079  167.1963 O.2     1  UNL1       -0.1687
     11 O         140.5550  140.1527  168.3231 O.2     1  UNL1       -0.1687
     12 C         142.3725  139.4353  169.1488 C.3     1  UNL1        0.1339
     13 C         142.7628  138.4833  170.2403 C.3     1  UNL1        0.0257
     14 C         142.8656  139.9630  170.4635 C.3     1  UNL1        0.0257
     15 N         138.8622  142.9527  162.9599 N.pl3   1  UNL1       -0.2327
     16 C         137.6602  143.0452  163.8525 C.3     1  UNL1        0.1110
     17 C         137.8550  144.2134  164.7729 C.3     1  UNL1        0.0250
     18 C         139.1775  144.8431  164.4491 C.3     1  UNL1        0.0250
     19 C         139.7998  144.0639  163.3286 C.3     1  UNL1        0.1110
     20 N         140.3006  140.0733  159.7178 N.am    1  UNL1       -0.2593
     21 C         140.0467  139.6363  161.1301 C.2     1  UNL1        0.2702
     22 O         140.0176  138.1755  161.4694 O.2     1  UNL1       -0.2681
     23 H         140.3197  141.0321  159.4951 H       1  UNL1        0.1571
     24 C         141.6109  137.5119  157.1125 C.ar    1  UNL1        0.0451
     25 C         140.1318  137.4361  156.8749 C.ar    1  UNL1        0.1044
     26 N         139.4608  138.3864  157.8220 N.ar    1  UNL1       -0.2227
     27 C         140.5254  139.0495  158.6449 C.ar    1  UNL1        0.1656
     28 S         141.8542  138.5091  158.2064 S.2     1  UNL1       -0.0543
     29 C         142.6622  136.7282  156.3840 C.3     1  UNL1        0.1074
     30 C         142.2157  130.7582  155.9848 C.3     1  UNL1        0.0897
     31 N         142.3273  132.2507  156.0846 N.3     1  UNL1       -0.2691
     32 C         143.2808  132.8676  157.0645 C.3     1  UNL1        0.0897
     33 C         143.3924  134.3601  157.1643 C.3     1  UNL1        0.0899
     34 N         142.5506  135.2357  156.2842 N.3     1  UNL1       -0.2661
     35 C         141.5971  134.6188  155.3043 C.3     1  UNL1        0.0899
     36 C         141.4855  133.1263  155.2045 C.3     1  UNL1        0.0897
@<TRIPOS>BOND
     1    30    31    1
     2    31    32    1
     3    32    33    1
     4    33    34    1
     5    34    29    1
     6    29    24    1
     7    24    25   ar
     8    25    26   ar
     9    26    27   ar
    10    27    20    1
    11    20    21   am
    12    21    22    2
    13    21     1    1
    14     1     2    2
    15     2    15    1
    16    15    16    1
    17    16    17    1
    18    17    18    1
    19    18    19    1
    20     1     3    1
    21     3     4   ar
    22     4     5   ar
    23     5     6   ar
    24     6     9    1
    25     9    10    2
    26     9    11    2
    27     9    12    1
    28    12    13    1
    29    13    14    1
    30     6     7   ar
    31     7     8   ar
    32    27    28   ar
    33    34    35    1
    34    35    36    1
    35    36    31    1
    36    28    24   ar
    37    19    15    1
    38     8     3   ar
    39    14    12    1
    40    20    23    1
@<TRIPOS>MOLECULE
*****
 36 40 0 0 0
SMALL
GASTEIGER

@<TRIPOS>ATOM
      1 C         143.1733  141.0021  161.3392 C.2     1  UNL1        0.1518
      2 N         143.1986  142.4390  160.9095 N.2     1  UNL1       -0.1775
      3 C         143.0277  140.6561  162.7914 C.ar    1  UNL1        0.0237
      4 C         144.2471  140.4960  163.6502 C.ar    1  UNL1        0.0030
      5 C         144.1015  140.1499  165.1025 C.ar    1  UNL1        0.0184
      6 C         142.7365  139.9640  165.6960 C.ar    1  UNL1        0.1056
      7 C         141.5171  140.1242  164.8372 C.ar    1  UNL1        0.0184
      8 C         141.6627  140.4702  163.3850 C.ar    1  UNL1        0.0030
      9 S         142.5908  139.6180  167.1482 S.O2    1  UNL1        0.0070
     10 O         141.5673  140.7033  167.3042 O.2     1  UNL1       -0.1687
     11 O         143.6144  138.5326  166.9922 O.2     1  UNL1       -0.1687
     12 C         142.4452  139.2719  168.6004 C.3     1  UNL1        0.1339
     13 C         142.8815  138.4798  169.7972 C.3     1  UNL1        0.0257
     14 C         141.7566  139.4645  169.9190 C.3     1  UNL1        0.0257
     15 N         143.0783  143.5299  161.9320 N.pl3   1  UNL1       -0.2327
     16 C         144.2082  144.1408  162.7067 C.3     1  UNL1        0.1110
     17 C         143.6351  145.1898  163.6128 C.3     1  UNL1        0.0250
     18 C         142.1510  145.2272  163.3982 C.3     1  UNL1        0.0250
     19 C         141.8069  144.2014  162.3594 C.3     1  UNL1        0.1110
     20 N         142.7341  140.1095  158.9391 N.am    1  UNL1       -0.2593
     21 C         143.2937  139.9113  160.3166 C.2     1  UNL1        0.2702
     22 O         143.9736  138.6223  160.6716 O.2     1  UNL1       -0.2681
     23 H         142.2878  140.9555  158.7061 H       1  UNL1        0.1571
     24 C         142.4447  136.9944  156.6417 C.ar    1  UNL1        0.0451
     25 C         143.6345  137.6856  156.0444 C.ar    1  UNL1        0.1044
     26 N         143.8877  138.9367  156.8323 N.ar    1  UNL1       -0.2227
     27 C         142.8544  139.0187  157.9166 C.ar    1  UNL1        0.1656
     28 S         141.9626  137.8184  157.7988 S.2     1  UNL1       -0.0543
     29 C         141.8427  135.7057  156.1656 C.3     1  UNL1        0.1074
     30 C         144.5011  130.4885  157.4746 C.3     1  UNL1        0.0897
     31 N         143.8365  131.7928  157.1473 N.3     1  UNL1       -0.2691
     32 C         144.3368  133.0651  157.7645 C.3     1  UNL1        0.0897
     33 C         143.6722  134.3694  157.4372 C.3     1  UNL1        0.0899
     34 N         142.5073  134.4014  156.4928 N.3     1  UNL1       -0.2661
     35 C         142.0070  133.1291  155.8757 C.3     1  UNL1        0.0899
     36 C         142.6716  131.8248  156.2029 C.3     1  UNL1        0.0897
@<TRIPOS>BOND
     1    30    31    1
     2    31    32    1
     3    32    33    1
     4    33    34    1
     5    34    29    1
     6    29    24    1
     7    24    25   ar
     8    25    26   ar
     9    26    27   ar
    10    27    20    1
    11    20    21   am
    12    21    22    2
    13    21     1    1
    14     1     2    2
    15     2    15    1
    16    15    16    1
    17    16    17    1
    18    17    18    1
    19    18    19    1
    20     1     3    1
    21     3     4   ar
    22     4     5   ar
    23     5     6   ar
    24     6     9    1
    25     9    10    2
    26     9    11    2
    27     9    12    1
    28    12    13    1
    29    13    14    1
    30     6     7   ar
    31     7     8   ar
    32    27    28   ar
    33    34    35    1
    34    35    36    1
    35    36    31    1
    36    28    24   ar
    37    19    15    1
    38     8     3   ar
    39    14    12    1
    40    20    23    1
@<TRIPOS>MOLECULE
*****
 36 40 0 0 0
SMALL
GASTEIGER

@<TRIPOS>ATOM
      1 C         141.7961  141.1307  161.7220 C.2     1  UNL1        0.1518
      2 N         142.4421  142.4022  161.2573 N.2     1  UNL1       -0.1775
      3 C         141.4176  140.9652  163.1639 C.ar    1  UNL1        0.0237
      4 C         142.4301  140.4686  164.1530 C.ar    1  UNL1        0.0030
      5 C         142.0515  140.3031  165.5950 C.ar    1  UNL1        0.0184
      6 C         140.6605  140.6344  166.0480 C.ar    1  UNL1        0.1056
      7 C         139.6479  141.1311  165.0590 C.ar    1  UNL1        0.0184
      8 C         140.0265  141.2965  163.6170 C.ar    1  UNL1        0.0030
      9 S         140.2819  140.4690  167.4899 S.O2    1  UNL1        0.0070
     10 O         139.2098  139.4963  167.0969 O.2     1  UNL1       -0.1687
     11 O         141.3540  141.4418  167.8830 O.2     1  UNL1       -0.1687
     12 C         139.9033  140.3036  168.9319 C.3     1  UNL1        0.1339
     13 C         138.8943  140.4377  170.0337 C.3     1  UNL1        0.0257
     14 C         140.2566  139.8832  170.3277 C.3     1  UNL1        0.0257
     15 N         142.7096  143.5082  162.2346 N.pl3   1  UNL1       -0.2327
     16 C         141.7402  144.5776  162.6429 C.3     1  UNL1        0.1110
     17 C         142.4249  145.4694  163.6358 C.3     1  UNL1        0.0250
     18 C         143.8175  144.9512  163.8412 C.3     1  UNL1        0.0250
     19 C         143.9934  143.7391  162.9752 C.3     1  UNL1        0.1110
     20 N         141.2103  140.3478  159.3149 N.am    1  UNL1       -0.2593
     21 C         141.5287  140.0246  160.7447 C.2     1  UNL1        0.2702
     22 O         141.5796  138.5955  161.1971 O.2     1  UNL1       -0.2681
     23 H         141.1769  141.2858  159.0180 H       1  UNL1        0.1571
     24 C         141.2577  137.5289  156.6472 C.ar    1  UNL1        0.0451
     25 C         139.8049  137.5505  157.0202 C.ar    1  UNL1        0.1044
     26 N         139.6103  138.6092  158.0650 N.ar    1  UNL1       -0.2227
     27 C         140.9429  139.2418  158.3377 C.ar    1  UNL1        0.1656
     28 S         141.9609  138.5742  157.4614 S.2     1  UNL1       -0.0543
     29 C         141.8952  136.6214  155.6373 C.3     1  UNL1        0.1074
     30 C         143.0052  130.8919  157.0306 C.3     1  UNL1        0.0897
     31 N         142.7277  132.3243  156.6823 N.3     1  UNL1       -0.2691
     32 C         143.4811  133.4232  157.3713 C.3     1  UNL1        0.0897
     33 C         143.2036  134.8556  157.0229 C.3     1  UNL1        0.0899
     34 N         142.1727  135.1890  155.9856 N.3     1  UNL1       -0.2661
     35 C         141.4193  134.0901  155.2966 C.3     1  UNL1        0.0899
     36 C         141.6968  132.6577  155.6450 C.3     1  UNL1        0.0897
@<TRIPOS>BOND
     1    30    31    1
     2    31    32    1
     3    32    33    1
     4    33    34    1
     5    34    29    1
     6    29    24    1
     7    24    25   ar
     8    25    26   ar
     9    26    27   ar
    10    27    20    1
    11    20    21   am
    12    21    22    2
    13    21     1    1
    14     1     2    2
    15     2    15    1
    16    15    16    1
    17    16    17    1
    18    17    18    1
    19    18    19    1
    20     1     3    1
    21     3     4   ar
    22     4     5   ar
    23     5     6   ar
    24     6     9    1
    25     9    10    2
    26     9    11    2
    27     9    12    1
    28    12    13    1
    29    13    14    1
    30     6     7   ar
    31     7     8   ar
    32    27    28   ar
    33    34    35    1
    34    35    36    1
    35    36    31    1
    36    28    24   ar
    37    19    15    1
    38     8     3   ar
    39    14    12    1
    40    20    23    1
@<TRIPOS>MOLECULE
*****
 36 40 0 0 0
SMALL
GASTEIGER

@<TRIPOS>ATOM
      1 C         140.4941  141.6440  161.8963 C.2     1  UNL1        0.1518
      2 N         139.9692  140.3153  161.4389 N.2     1  UNL1       -0.1775
      3 C         140.9795  141.8138  163.3054 C.ar    1  UNL1        0.0237
      4 C         142.4211  141.5654  163.6371 C.ar    1  UNL1        0.0030
      5 C         142.9065  141.7353  165.0462 C.ar    1  UNL1        0.0184
      6 C         141.9503  142.1535  166.1236 C.ar    1  UNL1        0.1056
      7 C         140.5087  142.4019  165.7919 C.ar    1  UNL1        0.0184
      8 C         140.0233  142.2320  164.3828 C.ar    1  UNL1        0.0030
      9 S         142.4356  142.3233  167.5327 S.O2    1  UNL1        0.0070
     10 O         141.1367  141.7763  168.0461 O.2     1  UNL1       -0.1687
     11 O         143.7346  142.8704  167.0193 O.2     1  UNL1       -0.1687
     12 C         142.9211  142.4932  168.9417 C.3     1  UNL1        0.1339
     13 C         143.9889  142.3090  169.9789 C.3     1  UNL1        0.0257
     14 C         142.6940  142.9716  170.3451 C.3     1  UNL1        0.0257
     15 N         139.9298  139.1565  162.3905 N.pl3   1  UNL1       -0.2327
     16 C         138.8004  138.8140  163.3164 C.3     1  UNL1        0.1110
     17 C         139.1855  137.5826  164.0815 C.3     1  UNL1        0.0250
     18 C         140.5528  137.1641  163.6285 C.3     1  UNL1        0.0250
     19 C         141.0128  138.1368  162.5835 C.3     1  UNL1        0.1110
     20 N         141.1350  142.6333  159.5810 N.am    1  UNL1       -0.2593
     21 C         140.5335  142.8028  160.9446 C.2     1  UNL1        0.2702
     22 O         139.9715  144.1310  161.3566 O.2     1  UNL1       -0.2681
     23 H         141.5039  141.7615  159.3106 H       1  UNL1        0.1571
     24 C         140.6876  145.2612  156.7598 C.ar    1  UNL1        0.0451
     25 C         141.7827  145.8893  157.5699 C.ar    1  UNL1        0.1044
     26 N         142.0836  144.9813  158.7254 N.ar    1  UNL1       -0.2227
     27 C         141.1744  143.7920  158.6294 C.ar    1  UNL1        0.1656
     28 S         140.3117  143.9650  157.4146 S.2     1  UNL1       -0.0543
     29 C         140.0758  145.8295  155.5137 C.3     1  UNL1        0.1074
     30 C         138.5493  151.6280  155.2963 C.3     1  UNL1        0.0897
     31 N         138.9309  150.1784  155.3506 N.3     1  UNL1       -0.2691
     32 C         138.5270  149.3401  156.5271 C.3     1  UNL1        0.0897
     33 C         138.9086  147.8904  156.5814 C.3     1  UNL1        0.0899
     34 N         139.6942  147.2791  155.4594 N.3     1  UNL1       -0.2661
     35 C         140.0981  148.1174  154.2829 C.3     1  UNL1        0.0899
     36 C         139.7165  149.5670  154.2285 C.3     1  UNL1        0.0897
@<TRIPOS>BOND
     1    30    31    1
     2    31    32    1
     3    32    33    1
     4    33    34    1
     5    34    29    1
     6    29    24    1
     7    24    25   ar
     8    25    26   ar
     9    26    27   ar
    10    27    20    1
    11    20    21   am
    12    21    22    2
    13    21     1    1
    14     1     2    2
    15     2    15    1
    16    15    16    1
    17    16    17    1
    18    17    18    1
    19    18    19    1
    20     1     3    1
    21     3     4   ar
    22     4     5   ar
    23     5     6   ar
    24     6     9    1
    25     9    10    2
    26     9    11    2
    27     9    12    1
    28    12    13    1
    29    13    14    1
    30     6     7   ar
    31     7     8   ar
    32    27    28   ar
    33    34    35    1
    34    35    36    1
    35    36    31    1
    36    28    24   ar
    37    19    15    1
    38     8     3   ar
    39    14    12    1
    40    20    23    1
@<TRIPOS>MOLECULE
*****
 36 40 0 0 0
SMALL
GASTEIGER

@<TRIPOS>ATOM
      1 C         141.6521  144.0449  161.4992 C.2     1  UNL1        0.1518
      2 N         143.0572  144.4898  161.7782 N.2     1  UNL1       -0.1775
      3 C         141.0071  143.0076  162.3699 C.ar    1  UNL1        0.0237
      4 C         141.2717  141.5518  162.1237 C.ar    1  UNL1        0.0030
      5 C         140.6266  140.5145  162.9944 C.ar    1  UNL1        0.0184
      6 C         139.7170  140.9331  164.1112 C.ar    1  UNL1        0.1056
      7 C         139.4524  142.3889  164.3575 C.ar    1  UNL1        0.0184
      8 C         140.0974  143.4262  163.4868 C.ar    1  UNL1        0.0030
      9 S         139.0720  139.8959  164.9819 S.O2    1  UNL1        0.0070
     10 O         140.4261  139.4049  165.4003 O.2     1  UNL1       -0.1687
     11 O         137.7177  140.3869  164.5635 O.2     1  UNL1       -0.1687
     12 C         138.4269  138.8588  165.8526 C.3     1  UNL1        0.1339
     13 C         138.1030  137.4225  166.1398 C.3     1  UNL1        0.0257
     14 C         137.6333  138.4985  167.0734 C.3     1  UNL1        0.0257
     15 N         143.8172  143.8975  162.9278 N.pl3   1  UNL1       -0.2327
     16 C         143.7868  144.3810  164.3474 C.3     1  UNL1        0.1110
     17 C         144.6919  143.5001  165.1566 C.3     1  UNL1        0.0250
     18 C         145.2816  142.4721  164.2370 C.3     1  UNL1        0.0250
     19 C         144.7410  142.7178  162.8596 C.3     1  UNL1        0.1110
     20 N         141.2532  144.2671  158.9416 N.am    1  UNL1       -0.2593
     21 C         140.8921  144.6372  160.3496 C.2     1  UNL1        0.2702
     22 O         139.7710  145.5995  160.6081 O.2     1  UNL1       -0.2681
     23 H         141.9891  143.6354  158.7720 H       1  UNL1        0.1571
     24 C         139.0628  145.0905  155.8449 C.ar    1  UNL1        0.0451
     25 C         139.5845  146.4511  156.2010 C.ar    1  UNL1        0.1044
     26 N         140.4685  146.3083  157.4045 N.ar    1  UNL1       -0.2227
     27 C         140.4932  144.8594  157.7921 C.ar    1  UNL1        0.1656
     28 S         139.6245  144.1068  156.8282 S.2     1  UNL1       -0.0543
     29 C         138.1414  144.7700  154.7056 C.3     1  UNL1        0.1074
     30 C         135.6939  139.3091  154.2718 C.3     1  UNL1        0.0897
     31 N         136.3058  140.6743  154.3802 N.3     1  UNL1       -0.2691
     32 C         137.5365  141.0094  153.5910 C.3     1  UNL1        0.0897
     33 C         138.1484  142.3747  153.6995 C.3     1  UNL1        0.0899
     34 N         137.5295  143.4048  154.5971 N.3     1  UNL1       -0.2661
     35 C         136.2988  143.0697  155.3863 C.3     1  UNL1        0.0899
     36 C         135.6869  141.7044  155.2779 C.3     1  UNL1        0.0897
@<TRIPOS>BOND
     1    30    31    1
     2    31    32    1
     3    32    33    1
     4    33    34    1
     5    34    29    1
     6    29    24    1
     7    24    25   ar
     8    25    26   ar
     9    26    27   ar
    10    27    20    1
    11    20    21   am
    12    21    22    2
    13    21     1    1
    14     1     2    2
    15     2    15    1
    16    15    16    1
    17    16    17    1
    18    17    18    1
    19    18    19    1
    20     1     3    1
    21     3     4   ar
    22     4     5   ar
    23     5     6   ar
    24     6     9    1
    25     9    10    2
    26     9    11    2
    27     9    12    1
    28    12    13    1
    29    13    14    1
    30     6     7   ar
    31     7     8   ar
    32    27    28   ar
    33    34    35    1
    34    35    36    1
    35    36    31    1
    36    28    24   ar
    37    19    15    1
    38     8     3   ar
    39    14    12    1
    40    20    23    1
@<TRIPOS>MOLECULE
*****
 36 40 0 0 0
SMALL
GASTEIGER

@<TRIPOS>ATOM
      1 C         143.2743  141.2128  160.8075 C.2     1  UNL1        0.1518
      2 N         143.8939  142.5747  160.9140 N.2     1  UNL1       -0.1775
      3 C         142.3357  140.7304  161.8735 C.ar    1  UNL1        0.0237
      4 C         140.8638  140.9926  161.7516 C.ar    1  UNL1        0.0030
      5 C         139.9253  140.5101  162.8177 C.ar    1  UNL1        0.0184
      6 C         140.4586  139.7655  164.0056 C.ar    1  UNL1        0.1056
      7 C         141.9305  139.5033  164.1274 C.ar    1  UNL1        0.0184
      8 C         142.8691  139.9857  163.0614 C.ar    1  UNL1        0.0030
      9 S         139.5202  139.2831  165.0716 S.O2    1  UNL1        0.0070
     10 O         140.6810  139.0704  165.9974 O.2     1  UNL1       -0.1687
     11 O         138.3592  139.4957  164.1457 O.2     1  UNL1       -0.1687
     12 C         138.5816  138.8006  166.1376 C.3     1  UNL1        0.1339
     13 C         137.8663  139.0243  167.4369 C.3     1  UNL1        0.0257
     14 C         137.6714  137.7413  166.6847 C.3     1  UNL1        0.0257
     15 N         143.5750  143.4541  162.0866 N.pl3   1  UNL1       -0.2327
     16 C         144.3373  143.5139  163.3770 C.3     1  UNL1        0.1110
     17 C         143.6712  144.5249  164.2625 C.3     1  UNL1        0.0250
     18 C         142.4971  145.0900  163.5194 C.3     1  UNL1        0.0250
     19 C         142.4377  144.4282  162.1746 C.3     1  UNL1        0.1110
     20 N         143.2707  140.7921  158.2437 N.am    1  UNL1       -0.2593
     21 C         143.5932  140.3334  159.6349 C.2     1  UNL1        0.2702
     22 O         144.2346  138.9952  159.8536 O.2     1  UNL1       -0.2681
     23 H         142.8498  141.6704  158.1001 H       1  UNL1        0.1571
     24 C         143.3927  138.2623  155.3025 C.ar    1  UNL1        0.0451
     25 C         144.7681  138.8565  155.2309 C.ar    1  UNL1        0.1044
     26 N         144.8899  139.8766  156.3240 N.ar    1  UNL1       -0.2227
     27 C         143.5896  139.9128  157.0712 C.ar    1  UNL1        0.1656
     28 S         142.6644  138.9151  156.4399 S.2     1  UNL1       -0.0543
     29 C         142.8423  137.2016  154.3960 C.3     1  UNL1        0.1074
     30 C         142.5267  131.5135  156.2792 C.3     1  UNL1        0.0897
     31 N         142.6056  132.9355  155.8084 N.3     1  UNL1       -0.2691
     32 C         141.6504  133.4342  154.7649 C.3     1  UNL1        0.0897
     33 C         141.7293  134.8562  154.2941 C.3     1  UNL1        0.0899
     34 N         142.7634  135.7796  154.8668 N.3     1  UNL1       -0.2661
     35 C         143.7186  135.2809  155.9103 C.3     1  UNL1        0.0899
     36 C         143.6397  133.8589  156.3811 C.3     1  UNL1        0.0897
@<TRIPOS>BOND
     1    30    31    1
     2    31    32    1
     3    32    33    1
     4    33    34    1
     5    34    29    1
     6    29    24    1
     7    24    25   ar
     8    25    26   ar
     9    26    27   ar
    10    27    20    1
    11    20    21   am
    12    21    22    2
    13    21     1    1
    14     1     2    2
    15     2    15    1
    16    15    16    1
    17    16    17    1
    18    17    18    1
    19    18    19    1
    20     1     3    1
    21     3     4   ar
    22     4     5   ar
    23     5     6   ar
    24     6     9    1
    25     9    10    2
    26     9    11    2
    27     9    12    1
    28    12    13    1
    29    13    14    1
    30     6     7   ar
    31     7     8   ar
    32    27    28   ar
    33    34    35    1
    34    35    36    1
    35    36    31    1
    36    28    24   ar
    37    19    15    1
    38     8     3   ar
    39    14    12    1
    40    20    23    1
@<TRIPOS>MOLECULE
*****
 36 40 0 0 0
SMALL
GASTEIGER

@<TRIPOS>ATOM
      1 C         142.0026  140.1669  159.5497 C.2     1  UNL1        0.1518
      2 N         142.0955  141.5433  158.9606 N.2     1  UNL1       -0.1775
      3 C         141.3416  139.9639  160.8808 C.ar    1  UNL1        0.0237
      4 C         142.0459  140.3776  162.1389 C.ar    1  UNL1        0.0030
      5 C         141.3847  140.1745  163.4700 C.ar    1  UNL1        0.0184
      6 C         140.0193  139.5577  163.5429 C.ar    1  UNL1        0.1056
      7 C         139.3151  139.1440  162.2848 C.ar    1  UNL1        0.0184
      8 C         139.9761  139.3470  160.9538 C.ar    1  UNL1        0.0030
      9 S         139.3582  139.3547  164.8739 S.O2    1  UNL1        0.0070
     10 O         139.9078  140.6676  165.3473 O.2     1  UNL1       -0.1687
     11 O         138.8086  138.0416  164.4006 O.2     1  UNL1       -0.1687
     12 C         138.6971  139.1515  166.2049 C.3     1  UNL1        0.1339
     13 C         138.6231  139.4368  167.6757 C.3     1  UNL1        0.0257
     14 C         137.6260  138.5143  167.0396 C.3     1  UNL1        0.0257
     15 N         141.5273  142.7166  159.7027 N.pl3   1  UNL1       -0.2327
     16 C         140.0804  143.1082  159.7578 C.3     1  UNL1        0.1110
     17 C         139.9652  144.3379  160.6090 C.3     1  UNL1        0.0250
     18 C         141.3409  144.7062  161.0800 C.3     1  UNL1        0.0250
     19 C         142.3063  143.7042  160.5198 C.3     1  UNL1        0.1110
     20 N         142.1673  138.7387  157.3857 N.am    1  UNL1       -0.2593
     21 C         142.5708  138.9936  158.8077 C.2     1  UNL1        0.2702
     22 O         143.5424  138.0753  159.4877 O.2     1  UNL1       -0.2681
     23 H         141.5295  139.3414  156.9393 H       1  UNL1        0.1571
     24 C         142.9938  135.3620  155.6593 C.ar    1  UNL1        0.0451
     25 C         144.2257  136.1578  155.3443 C.ar    1  UNL1        0.1044
     26 N         144.0660  137.5196  155.9526 N.ar    1  UNL1       -0.2227
     27 C         142.7354  137.5655  156.6437 C.ar    1  UNL1        0.1656
     28 S         142.0728  136.2320  156.4624 S.2     1  UNL1       -0.0543
     29 C         142.7294  133.9451  155.2442 C.3     1  UNL1        0.1074
     30 C         144.7636  129.4064  158.6002 C.3     1  UNL1        0.0897
     31 N         144.2551  130.5411  157.7612 N.3     1  UNL1       -0.2691
     32 C         143.1348  130.3125  156.7903 C.3     1  UNL1        0.0897
     33 C         142.6262  131.4472  155.9513 C.3     1  UNL1        0.0899
     34 N         143.2380  132.8104  156.0832 N.3     1  UNL1       -0.2661
     35 C         144.3582  133.0389  157.0541 C.3     1  UNL1        0.0899
     36 C         144.8668  131.9043  157.8931 C.3     1  UNL1        0.0897
@<TRIPOS>BOND
     1    30    31    1
     2    31    32    1
     3    32    33    1
     4    33    34    1
     5    34    29    1
     6    29    24    1
     7    24    25   ar
     8    25    26   ar
     9    26    27   ar
    10    27    20    1
    11    20    21   am
    12    21    22    2
    13    21     1    1
    14     1     2    2
    15     2    15    1
    16    15    16    1
    17    16    17    1
    18    17    18    1
    19    18    19    1
    20     1     3    1
    21     3     4   ar
    22     4     5   ar
    23     5     6   ar
    24     6     9    1
    25     9    10    2
    26     9    11    2
    27     9    12    1
    28    12    13    1
    29    13    14    1
    30     6     7   ar
    31     7     8   ar
    32    27    28   ar
    33    34    35    1
    34    35    36    1
    35    36    31    1
    36    28    24   ar
    37    19    15    1
    38     8     3   ar
    39    14    12    1
    40    20    23    1
@<TRIPOS>MOLECULE
*****
 36 40 0 0 0
SMALL
GASTEIGER

@<TRIPOS>ATOM
      1 C         142.9102  138.4448  157.3238 C.2     1  UNL1        0.1518
      2 N         143.1777  139.7634  156.6608 N.2     1  UNL1       -0.1775
      3 C         142.2819  138.4037  158.6853 C.ar    1  UNL1        0.0237
      4 C         140.7996  138.5796  158.8329 C.ar    1  UNL1        0.0030
      5 C         140.1713  138.5385  160.1945 C.ar    1  UNL1        0.0184
      6 C         141.0254  138.3216  161.4083 C.ar    1  UNL1        0.1056
      7 C         142.5078  138.1457  161.2607 C.ar    1  UNL1        0.0184
      8 C         143.1360  138.1868  159.8992 C.ar    1  UNL1        0.0030
      9 S         140.3972  138.2805  162.7698 S.O2    1  UNL1        0.0070
     10 O         139.8205  139.6468  162.5450 O.2     1  UNL1       -0.1687
     11 O         140.9740  136.9141  162.9946 O.2     1  UNL1       -0.1687
     12 C         139.7691  138.2393  164.1313 C.3     1  UNL1        0.1339
     13 C         139.6353  138.7964  165.5176 C.3     1  UNL1        0.0257
     14 C         138.8149  137.6110  165.1032 C.3     1  UNL1        0.0257
     15 N         142.8169  141.0410  157.3592 N.pl3   1  UNL1       -0.2327
     16 C         143.6869  141.7973  158.3189 C.3     1  UNL1        0.1110
     17 C         142.9305  143.0102  158.7733 C.3     1  UNL1        0.0250
     18 C         141.5929  143.0036  158.0945 C.3     1  UNL1        0.0250
     19 C         141.5227  141.7865  157.2205 C.3     1  UNL1        0.1110
     20 N         142.4330  135.9397  156.8273 N.am    1  UNL1       -0.2593
     21 C         143.2710  137.1673  156.6254 C.2     1  UNL1        0.2702
     22 O         144.4697  137.1174  155.7252 O.2     1  UNL1       -0.2681
     23 H         141.6462  135.9724  157.4182 H       1  UNL1        0.1571
     24 C         143.7570  132.4870  155.6476 C.ar    1  UNL1        0.0451
     25 C         142.9408  132.9054  154.4607 C.ar    1  UNL1        0.1044
     26 N         142.3454  134.2498  154.7581 N.ar    1  UNL1       -0.2227
     27 C         142.7937  134.6622  156.1289 C.ar    1  UNL1        0.1656
     28 S         143.6661  133.5728  156.6786 S.2     1  UNL1       -0.0543
     29 C         144.5287  131.2076  155.7803 C.3     1  UNL1        0.1074
     30 C         142.6011  126.9137  159.5014 C.3     1  UNL1        0.0897
     31 N         143.0830  127.9872  158.5711 N.3     1  UNL1       -0.2691
     32 C         142.5806  128.0367  157.1587 C.3     1  UNL1        0.0897
     33 C         143.0625  129.1101  156.2284 C.3     1  UNL1        0.0899
     34 N         144.0468  130.1342  156.7106 N.3     1  UNL1       -0.2661
     35 C         144.5491  130.0847  158.1230 C.3     1  UNL1        0.0899
     36 C         144.0672  129.0112  159.0533 C.3     1  UNL1        0.0897
@<TRIPOS>BOND
     1    30    31    1
     2    31    32    1
     3    32    33    1
     4    33    34    1
     5    34    29    1
     6    29    24    1
     7    24    25   ar
     8    25    26   ar
     9    26    27   ar
    10    27    20    1
    11    20    21   am
    12    21    22    2
    13    21     1    1
    14     1     2    2
    15     2    15    1
    16    15    16    1
    17    16    17    1
    18    17    18    1
    19    18    19    1
    20     1     3    1
    21     3     4   ar
    22     4     5   ar
    23     5     6   ar
    24     6     9    1
    25     9    10    2
    26     9    11    2
    27     9    12    1
    28    12    13    1
    29    13    14    1
    30     6     7   ar
    31     7     8   ar
    32    27    28   ar
    33    34    35    1
    34    35    36    1
    35    36    31    1
    36    28    24   ar
    37    19    15    1
    38     8     3   ar
    39    14    12    1
    40    20    23    1
