@<TRIPOS>MOLECULE
*****
 29 32 0 0 0
SMALL
GASTEIGER

@<TRIPOS>ATOM
      1 C         139.1506  138.4904  163.0798 C.3     1  UNL1        0.0559
      2 C         139.3593  139.5081  164.1618 C.3     1  UNL1        0.2098
      3 N         139.5360  139.2180  165.6229 N.pl3   1  UNL1       -0.2170
      4 C         139.7138  140.5252  166.3368 C.2     1  UNL1        0.3340
      5 N         139.6469  141.6231  165.3170 N.2     1  UNL1       -0.0600
      6 C         139.4278  140.9946  163.9728 C.3     1  UNL1        0.2529
      7 H         139.5353  138.3262  166.0400 H       1  UNL1        0.2923
      8 C         139.2137  140.6622  162.5259 C.ar    1  UNL1        0.0489
      9 C         140.3898  140.5358  161.6034 C.ar    1  UNL1        0.0057
     10 C         140.1757  140.2034  160.1564 C.ar    1  UNL1        0.0495
     11 C         138.7857  139.9974  159.6319 C.ar    1  UNL1        0.2223
     12 F         138.5715  139.6651  158.1850 F       1  UNL1       -0.1832
     13 N         137.6095  140.1239  160.5544 N.ar    1  UNL1       -0.2166
     14 C         137.8236  140.4562  162.0014 C.ar    1  UNL1        0.1014
     15 C         139.4517  142.4116  163.4813 C.ar    1  UNL1        0.0489
     16 C         140.7537  143.1501  163.3848 C.ar    1  UNL1        0.0057
     17 C         140.7775  144.5671  162.8932 C.ar    1  UNL1        0.0495
     18 C         139.4993  145.2455  162.4982 C.ar    1  UNL1        0.2223
     19 F         139.5232  146.6625  162.0067 F       1  UNL1       -0.1832
     20 N         138.1974  144.5070  162.5947 N.ar    1  UNL1       -0.2166
     21 C         138.1735  143.0899  163.0863 C.ar    1  UNL1        0.1014
     22 C         139.9218  140.7031  167.8117 C.ar    1  UNL1        0.1633
     23 C         140.9522  141.6714  168.3123 C.ar    1  UNL1        0.0370
     24 C         141.1602  141.8493  169.7871 C.ar    1  UNL1        0.0717
     25 C         140.3379  141.0589  170.7612 C.ar    1  UNL1        0.0310
     26 C         139.3076  140.0905  170.2606 C.ar    1  UNL1        0.0998
     27 N         139.0995  139.9126  168.7858 N.ar    1  UNL1       -0.2364
     28 C         142.1906  142.8177  170.2878 C.1     1  UNL1        0.1005
     29 N         143.2209  143.7861  170.7884 N.1     1  UNL1       -0.1908
@<TRIPOS>BOND
     1     2     1    1
     2     2     3    1
     3     3     4    1
     4     4    22    1
     5    22    23   ar
     6    23    24   ar
     7    24    28    1
     8    28    29    3
     9    24    25   ar
    10    25    26   ar
    11    26    27   ar
    12     4     5    2
    13     5     6    1
    14     6     8    1
    15     8     9   ar
    16     9    10   ar
    17    10    11   ar
    18    11    12    1
    19    11    13   ar
    20    13    14   ar
    21     6    15    1
    22    15    16   ar
    23    16    17   ar
    24    17    18   ar
    25    18    19    1
    26    18    20   ar
    27    20    21   ar
    28     6     2    1
    29    14     8   ar
    30    21    15   ar
    31    27    22   ar
    32     3     7    1
@<TRIPOS>MOLECULE
*****
 29 32 0 0 0
SMALL
GASTEIGER

@<TRIPOS>ATOM
      1 C         144.8291  141.0541  162.6806 C.3     1  UNL1        0.0559
      2 C         143.8156  140.8362  163.7648 C.3     1  UNL1        0.2098
      3 N         143.9823  141.1928  165.2122 N.pl3   1  UNL1       -0.2170
      4 C         142.7272  140.8004  165.9338 C.2     1  UNL1        0.3340
      5 N         141.7848  140.2012  164.9324 N.2     1  UNL1       -0.0600
      6 C         142.4575  140.2232  163.5919 C.3     1  UNL1        0.2529
      7 H         144.7761  141.6111  165.6174 H       1  UNL1        0.2923
      8 C         142.8640  140.1124  162.1523 C.ar    1  UNL1        0.0489
      9 C         142.4586  141.1752  161.1745 C.ar    1  UNL1        0.0057
     10 C         142.8651  141.0643  159.7348 C.ar    1  UNL1        0.0495
     11 C         143.6770  139.8907  159.2731 C.ar    1  UNL1        0.2223
     12 F         144.0836  139.7798  157.8335 F       1  UNL1       -0.1832
     13 N         144.0825  138.8278  160.2509 N.ar    1  UNL1       -0.2166
     14 C         143.6760  138.9387  161.6905 C.ar    1  UNL1        0.1014
     15 C         141.1844  139.5872  163.1180 C.ar    1  UNL1        0.0489
     16 C         139.9750  140.4348  162.8551 C.ar    1  UNL1        0.0057
     17 C         138.7019  139.7987  162.3812 C.ar    1  UNL1        0.0495
     18 C         138.6381  138.3150  162.1702 C.ar    1  UNL1        0.2223
     19 F         137.3649  137.6790  161.6963 F       1  UNL1       -0.1832
     20 N         139.8474  137.4674  162.4331 N.ar    1  UNL1       -0.2166
     21 C         141.1206  138.1035  162.9070 C.ar    1  UNL1        0.1014
     22 C         142.4612  140.9764  167.3996 C.ar    1  UNL1        0.1633
     23 C         141.7409  142.1973  167.8898 C.ar    1  UNL1        0.0370
     24 C         141.4750  142.3732  169.3555 C.ar    1  UNL1        0.0717
     25 C         141.9293  141.3281  170.3309 C.ar    1  UNL1        0.0310
     26 C         142.6495  140.1072  169.8407 C.ar    1  UNL1        0.0998
     27 N         142.9155  139.9313  168.3750 N.ar    1  UNL1       -0.2364
     28 C         140.7547  143.5942  169.8459 C.1     1  UNL1        0.1005
     29 N         140.0344  144.8151  170.3362 N.1     1  UNL1       -0.1908
@<TRIPOS>BOND
     1     2     1    1
     2     2     3    1
     3     3     4    1
     4     4    22    1
     5    22    23   ar
     6    23    24   ar
     7    24    28    1
     8    28    29    3
     9    24    25   ar
    10    25    26   ar
    11    26    27   ar
    12     4     5    2
    13     5     6    1
    14     6     8    1
    15     8     9   ar
    16     9    10   ar
    17    10    11   ar
    18    11    12    1
    19    11    13   ar
    20    13    14   ar
    21     6    15    1
    22    15    16   ar
    23    16    17   ar
    24    17    18   ar
    25    18    19    1
    26    18    20   ar
    27    20    21   ar
    28     6     2    1
    29    14     8   ar
    30    21    15   ar
    31    27    22   ar
    32     3     7    1
@<TRIPOS>MOLECULE
*****
 29 32 0 0 0
SMALL
GASTEIGER

@<TRIPOS>ATOM
      1 C         142.3451  144.9290  162.9666 C.3     1  UNL1        0.0559
      2 C         141.8940  143.7241  163.7378 C.3     1  UNL1        0.2098
      3 N         142.3917  143.3053  165.0894 N.pl3   1  UNL1       -0.2170
      4 C         141.6714  142.0487  165.4797 C.2     1  UNL1        0.3340
      5 N         140.7285  141.6910  164.3693 N.2     1  UNL1       -0.0600
      6 C         140.8661  142.7264  163.2927 C.3     1  UNL1        0.2529
      7 H         143.0717  143.7729  165.6262 H       1  UNL1        0.2923
      8 C         140.7853  143.5911  162.0697 C.ar    1  UNL1        0.0489
      9 C         141.6820  143.3190  160.8983 C.ar    1  UNL1        0.0057
     10 C         141.6012  144.1837  159.6752 C.ar    1  UNL1        0.0495
     11 C         140.6238  145.3203  159.6235 C.ar    1  UNL1        0.2223
     12 F         140.5431  146.1850  158.4005 F       1  UNL1       -0.1832
     13 N         139.7271  145.5924  160.7949 N.ar    1  UNL1       -0.2166
     14 C         139.8079  144.7277  162.0180 C.ar    1  UNL1        0.1014
     15 C         139.8213  141.9095  162.5919 C.ar    1  UNL1        0.0489
     16 C         140.2309  140.8279  161.6367 C.ar    1  UNL1        0.0057
     17 C         139.1861  140.0110  160.9359 C.ar    1  UNL1        0.0495
     18 C         137.7318  140.2757  161.1903 C.ar    1  UNL1        0.2223
     19 F         136.6870  139.4587  160.4895 F       1  UNL1       -0.1832
     20 N         137.3222  141.3572  162.1455 N.ar    1  UNL1       -0.2166
     21 C         138.3670  142.1742  162.8464 C.ar    1  UNL1        0.1014
     22 C         141.8607  141.2842  166.7563 C.ar    1  UNL1        0.1633
     23 C         141.3388  141.8402  168.0480 C.ar    1  UNL1        0.0370
     24 C         141.5282  141.0757  169.3245 C.ar    1  UNL1        0.0717
     25 C         142.2393  139.7551  169.3094 C.ar    1  UNL1        0.0310
     26 C         142.7612  139.1990  168.0177 C.ar    1  UNL1        0.0998
     27 N         142.5718  139.9636  166.7412 N.ar    1  UNL1       -0.2364
     28 C         141.0063  141.6317  170.6163 C.1     1  UNL1        0.1005
     29 N         140.4845  142.1878  171.9080 N.1     1  UNL1       -0.1908
@<TRIPOS>BOND
     1     2     1    1
     2     2     3    1
     3     3     4    1
     4     4    22    1
     5    22    23   ar
     6    23    24   ar
     7    24    28    1
     8    28    29    3
     9    24    25   ar
    10    25    26   ar
    11    26    27   ar
    12     4     5    2
    13     5     6    1
    14     6     8    1
    15     8     9   ar
    16     9    10   ar
    17    10    11   ar
    18    11    12    1
    19    11    13   ar
    20    13    14   ar
    21     6    15    1
    22    15    16   ar
    23    16    17   ar
    24    17    18   ar
    25    18    19    1
    26    18    20   ar
    27    20    21   ar
    28     6     2    1
    29    14     8   ar
    30    21    15   ar
    31    27    22   ar
    32     3     7    1
@<TRIPOS>MOLECULE
*****
 29 32 0 0 0
SMALL
GASTEIGER

@<TRIPOS>ATOM
      1 C         144.3614  139.6369  162.8926 C.3     1  UNL1        0.0559
      2 C         143.5900  140.2559  164.0203 C.3     1  UNL1        0.2098
      3 N         143.5047  139.7310  165.4229 N.pl3   1  UNL1       -0.2170
      4 C         142.6304  140.6592  166.2129 C.2     1  UNL1        0.3340
      5 N         142.1754  141.7578  165.2986 N.2     1  UNL1       -0.0600
      6 C         142.7684  141.5086  163.9435 C.3     1  UNL1        0.2529
      7 H         143.9452  138.9197  165.7649 H       1  UNL1        0.2923
      8 C         143.2090  141.5218  162.5097 C.ar    1  UNL1        0.0489
      9 C         142.4408  140.7449  161.4819 C.ar    1  UNL1        0.0057
     10 C         142.8813  140.7581  160.0481 C.ar    1  UNL1        0.0495
     11 C         144.0900  141.5481  159.6421 C.ar    1  UNL1        0.2223
     12 F         144.5305  141.5613  158.2083 F       1  UNL1       -0.1832
     13 N         144.8583  142.3250  160.6699 N.ar    1  UNL1       -0.2166
     14 C         144.4177  142.3118  162.1037 C.ar    1  UNL1        0.1014
     15 C         142.0390  142.7640  163.5669 C.ar    1  UNL1        0.0489
     16 C         142.6099  144.1018  163.9335 C.ar    1  UNL1        0.0057
     17 C         141.8805  145.3572  163.5569 C.ar    1  UNL1        0.0495
     18 C         140.5801  145.2749  162.8137 C.ar    1  UNL1        0.2223
     19 F         139.8507  146.5304  162.4371 F       1  UNL1       -0.1832
     20 N         140.0092  143.9371  162.4471 N.ar    1  UNL1       -0.2166
     21 C         140.7387  142.6816  162.8237 C.ar    1  UNL1        0.1014
     22 C         142.2738  140.5142  167.6627 C.ar    1  UNL1        0.1633
     23 C         141.3911  141.5313  168.3232 C.ar    1  UNL1        0.0370
     24 C         141.0345  141.3863  169.7730 C.ar    1  UNL1        0.0717
     25 C         141.5607  140.2242  170.5621 C.ar    1  UNL1        0.0310
     26 C         142.4434  139.2072  169.9016 C.ar    1  UNL1        0.0998
     27 N         142.8000  139.3522  168.4518 N.ar    1  UNL1       -0.2364
     28 C         140.1518  142.4033  170.4336 C.1     1  UNL1        0.1005
     29 N         139.2691  143.4203  171.0943 N.1     1  UNL1       -0.1908
@<TRIPOS>BOND
     1     2     1    1
     2     2     3    1
     3     3     4    1
     4     4    22    1
     5    22    23   ar
     6    23    24   ar
     7    24    28    1
     8    28    29    3
     9    24    25   ar
    10    25    26   ar
    11    26    27   ar
    12     4     5    2
    13     5     6    1
    14     6     8    1
    15     8     9   ar
    16     9    10   ar
    17    10    11   ar
    18    11    12    1
    19    11    13   ar
    20    13    14   ar
    21     6    15    1
    22    15    16   ar
    23    16    17   ar
    24    17    18   ar
    25    18    19    1
    26    18    20   ar
    27    20    21   ar
    28     6     2    1
    29    14     8   ar
    30    21    15   ar
    31    27    22   ar
    32     3     7    1
@<TRIPOS>MOLECULE
*****
 29 32 0 0 0
SMALL
GASTEIGER

@<TRIPOS>ATOM
      1 C         141.0074  137.5843  164.7360 C.3     1  UNL1        0.0559
      2 C         140.8303  138.1681  163.3657 C.3     1  UNL1        0.2098
      3 N         141.3208  137.5681  162.0814 N.pl3   1  UNL1       -0.2170
      4 C         140.9251  138.4837  160.9611 C.2     1  UNL1        0.3340
      5 N         140.1901  139.6496  161.5529 N.2     1  UNL1       -0.0600
      6 C         140.1314  139.4546  163.0390 C.3     1  UNL1        0.2529
      7 H         141.8155  136.7219  161.9899 H       1  UNL1        0.2923
      8 C         139.9174  139.5319  164.5217 C.ar    1  UNL1        0.0489
      9 C         138.6471  139.0092  165.1242 C.ar    1  UNL1        0.0057
     10 C         138.4329  139.0865  166.6069 C.ar    1  UNL1        0.0495
     11 C         139.4891  139.6864  167.4869 C.ar    1  UNL1        0.2223
     12 F         139.2750  139.7637  168.9695 F       1  UNL1       -0.1832
     13 N         140.7595  140.2092  166.8843 N.ar    1  UNL1       -0.2166
     14 C         140.9736  140.1319  165.4017 C.ar    1  UNL1        0.1014
     15 C         139.3879  140.7573  163.0224 C.ar    1  UNL1        0.0489
     16 C         140.1117  142.0379  163.3159 C.ar    1  UNL1        0.0057
     17 C         139.3682  143.3405  163.2992 C.ar    1  UNL1        0.0495
     18 C         137.9008  143.3625  162.9891 C.ar    1  UNL1        0.2223
     19 F         137.1572  144.6652  162.9724 F       1  UNL1       -0.1832
     20 N         137.1769  142.0820  162.6956 N.ar    1  UNL1       -0.2166
     21 C         137.9205  140.7793  162.7122 C.ar    1  UNL1        0.1014
     22 C         141.2139  138.2707  159.5046 C.ar    1  UNL1        0.1633
     23 C         140.0898  138.0013  158.5487 C.ar    1  UNL1        0.0370
     24 C         140.3785  137.7884  157.0923 C.ar    1  UNL1        0.0717
     25 C         141.7914  137.8448  156.5918 C.ar    1  UNL1        0.0310
     26 C         142.9156  138.1141  157.5476 C.ar    1  UNL1        0.0998
     27 N         142.6268  138.3271  159.0040 N.ar    1  UNL1       -0.2364
     28 C         139.2544  137.5190  156.1363 C.1     1  UNL1        0.1005
     29 N         138.1303  137.2496  155.1804 N.1     1  UNL1       -0.1908
@<TRIPOS>BOND
     1     2     1    1
     2     2     3    1
     3     3     4    1
     4     4    22    1
     5    22    23   ar
     6    23    24   ar
     7    24    28    1
     8    28    29    3
     9    24    25   ar
    10    25    26   ar
    11    26    27   ar
    12     4     5    2
    13     5     6    1
    14     6     8    1
    15     8     9   ar
    16     9    10   ar
    17    10    11   ar
    18    11    12    1
    19    11    13   ar
    20    13    14   ar
    21     6    15    1
    22    15    16   ar
    23    16    17   ar
    24    17    18   ar
    25    18    19    1
    26    18    20   ar
    27    20    21   ar
    28     6     2    1
    29    14     8   ar
    30    21    15   ar
    31    27    22   ar
    32     3     7    1
@<TRIPOS>MOLECULE
*****
 29 32 0 0 0
SMALL
GASTEIGER

@<TRIPOS>ATOM
      1 C         142.8999  142.4195  166.4744 C.3     1  UNL1        0.0559
      2 C         141.9484  142.1079  165.3574 C.3     1  UNL1        0.2098
      3 N         141.8449  142.8460  164.0557 N.pl3   1  UNL1       -0.2170
      4 C         140.7659  142.1978  163.2398 C.2     1  UNL1        0.3340
      5 N         140.2026  141.0590  164.0372 N.2     1  UNL1       -0.0600
      6 C         140.9334  141.0034  165.3460 C.3     1  UNL1        0.2529
      7 H         142.3894  143.6200  163.7844 H       1  UNL1        0.2923
      8 C         141.4758  140.7039  166.7120 C.ar    1  UNL1        0.0489
      9 C         140.9743  141.4671  167.9020 C.ar    1  UNL1        0.0057
     10 C         141.5166  141.1676  169.2681 C.ar    1  UNL1        0.0495
     11 C         142.5604  140.1050  169.4442 C.ar    1  UNL1        0.2223
     12 F         143.1028  139.8055  170.8103 F       1  UNL1       -0.1832
     13 N         143.0620  139.3417  168.2542 N.ar    1  UNL1       -0.2166
     14 C         142.5197  139.6412  166.8882 C.ar    1  UNL1        0.1014
     15 C         140.0319  139.8364  165.6202 C.ar    1  UNL1        0.0489
     16 C         138.9272  139.9624  166.6270 C.ar    1  UNL1        0.0057
     17 C         138.0256  138.7954  166.9013 C.ar    1  UNL1        0.0495
     18 C         138.2287  137.5023  166.1686 C.ar    1  UNL1        0.2223
     19 F         137.3271  136.3353  166.4429 F       1  UNL1       -0.1832
     20 N         139.3334  137.3763  165.1618 N.ar    1  UNL1       -0.2166
     21 C         140.2350  138.5434  164.8875 C.ar    1  UNL1        0.1014
     22 C         140.3273  142.6151  161.8673 C.ar    1  UNL1        0.1633
     23 C         141.1530  143.5885  161.0797 C.ar    1  UNL1        0.0370
     24 C         140.7144  144.0057  159.7073 C.ar    1  UNL1        0.0717
     25 C         139.4499  143.4496  159.1226 C.ar    1  UNL1        0.0310
     26 C         138.6241  142.4762  159.9103 C.ar    1  UNL1        0.0998
     27 N         139.0628  142.0589  161.2827 N.ar    1  UNL1       -0.2364
     28 C         141.5402  144.9792  158.9195 C.1     1  UNL1        0.1005
     29 N         142.3660  145.9526  158.1318 N.1     1  UNL1       -0.1908
@<TRIPOS>BOND
     1     2     1    1
     2     2     3    1
     3     3     4    1
     4     4    22    1
     5    22    23   ar
     6    23    24   ar
     7    24    28    1
     8    28    29    3
     9    24    25   ar
    10    25    26   ar
    11    26    27   ar
    12     4     5    2
    13     5     6    1
    14     6     8    1
    15     8     9   ar
    16     9    10   ar
    17    10    11   ar
    18    11    12    1
    19    11    13   ar
    20    13    14   ar
    21     6    15    1
    22    15    16   ar
    23    16    17   ar
    24    17    18   ar
    25    18    19    1
    26    18    20   ar
    27    20    21   ar
    28     6     2    1
    29    14     8   ar
    30    21    15   ar
    31    27    22   ar
    32     3     7    1
@<TRIPOS>MOLECULE
*****
 29 32 0 0 0
SMALL
GASTEIGER

@<TRIPOS>ATOM
      1 C         141.0293  137.2159  163.3813 C.3     1  UNL1        0.0559
      2 C         141.1916  138.3735  164.3212 C.3     1  UNL1        0.2098
      3 N         140.6358  138.4652  165.7114 N.pl3   1  UNL1       -0.2170
      4 C         141.0389  139.7911  166.2854 C.2     1  UNL1        0.3340
      5 N         141.8438  140.5190  165.2498 N.2     1  UNL1       -0.0600
      6 C         141.9382  139.6430  164.0359 C.3     1  UNL1        0.2529
      7 H         140.1005  137.7760  166.1672 H       1  UNL1        0.2923
      8 C         142.2000  139.0043  162.7042 C.ar    1  UNL1        0.0489
      9 C         143.4975  138.2940  162.4553 C.ar    1  UNL1        0.0057
     10 C         143.7595  137.6553  161.1235 C.ar    1  UNL1        0.0495
     11 C         142.7239  137.7269  160.0408 C.ar    1  UNL1        0.2223
     12 F         142.9858  137.0883  158.7090 F       1  UNL1       -0.1832
     13 N         141.4263  138.4373  160.2897 N.ar    1  UNL1       -0.2166
     14 C         141.1644  139.0759  161.6214 C.ar    1  UNL1        0.1014
     15 C         142.7395  140.7788  163.4722 C.ar    1  UNL1        0.0489
     16 C         144.1808  140.9420  163.8542 C.ar    1  UNL1        0.0057
     17 C         144.9821  142.0778  163.2904 C.ar    1  UNL1        0.0495
     18 C         144.3420  143.0504  162.3448 C.ar    1  UNL1        0.2223
     19 F         145.1434  144.1863  161.7811 F       1  UNL1       -0.1832
     20 N         142.9008  142.8873  161.9628 N.ar    1  UNL1       -0.2166
     21 C         142.0994  141.7514  162.5266 C.ar    1  UNL1        0.1014
     22 C         140.6971  140.2999  167.6545 C.ar    1  UNL1        0.1633
     23 C         141.5881  141.3022  168.3262 C.ar    1  UNL1        0.0370
     24 C         141.2463  141.8109  169.6953 C.ar    1  UNL1        0.0717
     25 C         140.0134  141.3172  170.3926 C.ar    1  UNL1        0.0310
     26 C         139.1223  140.3149  169.7208 C.ar    1  UNL1        0.0998
     27 N         139.4641  139.8062  168.3518 N.ar    1  UNL1       -0.2364
     28 C         142.1374  142.8132  170.3671 C.1     1  UNL1        0.1005
     29 N         143.0284  143.8156  171.0389 N.1     1  UNL1       -0.1908
@<TRIPOS>BOND
     1     2     1    1
     2     2     3    1
     3     3     4    1
     4     4    22    1
     5    22    23   ar
     6    23    24   ar
     7    24    28    1
     8    28    29    3
     9    24    25   ar
    10    25    26   ar
    11    26    27   ar
    12     4     5    2
    13     5     6    1
    14     6     8    1
    15     8     9   ar
    16     9    10   ar
    17    10    11   ar
    18    11    12    1
    19    11    13   ar
    20    13    14   ar
    21     6    15    1
    22    15    16   ar
    23    16    17   ar
    24    17    18   ar
    25    18    19    1
    26    18    20   ar
    27    20    21   ar
    28     6     2    1
    29    14     8   ar
    30    21    15   ar
    31    27    22   ar
    32     3     7    1
@<TRIPOS>MOLECULE
*****
 29 32 0 0 0
SMALL
GASTEIGER

@<TRIPOS>ATOM
      1 C         144.6843  141.3347  162.6427 C.3     1  UNL1        0.0559
      2 C         143.6532  141.1278  163.7123 C.3     1  UNL1        0.2098
      3 N         143.7652  141.5681  165.1419 N.pl3   1  UNL1       -0.2170
      4 C         142.5103  141.1567  165.8532 C.2     1  UNL1        0.3340
      5 N         141.6227  140.4623  164.8633 N.2     1  UNL1       -0.0600
      6 C         142.3290  140.4444  163.5402 C.3     1  UNL1        0.2529
      7 H         144.5284  142.0435  165.5429 H       1  UNL1        0.2923
      8 C         142.7782  140.2764  162.1189 C.ar    1  UNL1        0.0489
      9 C         142.3293  141.2505  161.0703 C.ar    1  UNL1        0.0057
     10 C         142.7785  141.0825  159.6490 C.ar    1  UNL1        0.0495
     11 C         143.6765  139.9403  159.2763 C.ar    1  UNL1        0.2223
     12 F         144.1257  139.7723  157.8551 F       1  UNL1       -0.1832
     13 N         144.1255  138.9661  160.3250 N.ar    1  UNL1       -0.2166
     14 C         143.6763  139.1342  161.7462 C.ar    1  UNL1        0.1014
     15 C         141.0988  139.7259  163.0709 C.ar    1  UNL1        0.0489
     16 C         139.8117  140.4767  162.8982 C.ar    1  UNL1        0.0057
     17 C         138.5815  139.7581  162.4289 C.ar    1  UNL1        0.0495
     18 C         138.6384  138.2889  162.1323 C.ar    1  UNL1        0.2223
     19 F         137.4080  137.5704  161.6629 F       1  UNL1       -0.1832
     20 N         139.9254  137.5381  162.3049 N.ar    1  UNL1       -0.2166
     21 C         141.1557  138.2566  162.7742 C.ar    1  UNL1        0.1014
     22 C         142.1978  141.3976  167.3005 C.ar    1  UNL1        0.1633
     23 C         140.9406  140.8402  167.8992 C.ar    1  UNL1        0.0370
     24 C         140.6282  141.0810  169.3463 C.ar    1  UNL1        0.0717
     25 C         141.5730  141.8793  170.1948 C.ar    1  UNL1        0.0310
     26 C         142.8303  142.4368  169.5961 C.ar    1  UNL1        0.0998
     27 N         143.1427  142.1959  168.1489 N.ar    1  UNL1       -0.2364
     28 C         139.3708  140.5236  169.9451 C.1     1  UNL1        0.1005
     29 N         138.1136  139.9661  170.5439 N.1     1  UNL1       -0.1908
@<TRIPOS>BOND
     1     2     1    1
     2     2     3    1
     3     3     4    1
     4     4    22    1
     5    22    23   ar
     6    23    24   ar
     7    24    28    1
     8    28    29    3
     9    24    25   ar
    10    25    26   ar
    11    26    27   ar
    12     4     5    2
    13     5     6    1
    14     6     8    1
    15     8     9   ar
    16     9    10   ar
    17    10    11   ar
    18    11    12    1
    19    11    13   ar
    20    13    14   ar
    21     6    15    1
    22    15    16   ar
    23    16    17   ar
    24    17    18   ar
    25    18    19    1
    26    18    20   ar
    27    20    21   ar
    28     6     2    1
    29    14     8   ar
    30    21    15   ar
    31    27    22   ar
    32     3     7    1
@<TRIPOS>MOLECULE
*****
 29 32 0 0 0
SMALL
GASTEIGER

@<TRIPOS>ATOM
      1 C         141.5703  145.4303  163.2792 C.3     1  UNL1        0.0559
      2 C         141.2702  144.8738  161.9189 C.3     1  UNL1        0.2098
      3 N         141.7011  145.4655  160.6096 N.pl3   1  UNL1       -0.2170
      4 C         141.1837  144.5854  159.5106 C.2     1  UNL1        0.3340
      5 N         140.4331  143.4498  160.1407 N.2     1  UNL1       -0.0600
      6 C         140.4865  143.6281  161.6291 C.3     1  UNL1        0.2529
      7 H         142.2305  146.2872  160.4922 H       1  UNL1        0.2923
      8 C         140.3711  143.5422  163.1222 C.ar    1  UNL1        0.0489
      9 C         139.2430  144.2341  163.8282 C.ar    1  UNL1        0.0057
     10 C         139.1275  144.1482  165.3213 C.ar    1  UNL1        0.0495
     11 C         140.1401  143.3704  166.1083 C.ar    1  UNL1        0.2223
     12 F         140.0247  143.2845  167.6014 F       1  UNL1       -0.1832
     13 N         141.2683  142.6784  165.4023 N.ar    1  UNL1       -0.2166
     14 C         141.3838  142.7643  163.9092 C.ar    1  UNL1        0.1014
     15 C         139.6787  142.3643  161.6514 C.ar    1  UNL1        0.0489
     16 C         140.3673  141.0329  161.5942 C.ar    1  UNL1        0.0057
     17 C         139.5595  139.7692  161.6166 C.ar    1  UNL1        0.0495
     18 C         138.0632  139.8369  161.6961 C.ar    1  UNL1        0.2223
     19 F         137.2554  138.5731  161.7185 F       1  UNL1       -0.1832
     20 N         137.3746  141.1682  161.7533 N.ar    1  UNL1       -0.2166
     21 C         138.1824  142.4320  161.7310 C.ar    1  UNL1        0.1014
     22 C         141.3822  144.8027  158.0397 C.ar    1  UNL1        0.1633
     23 C         140.6534  145.9117  157.3404 C.ar    1  UNL1        0.0370
     24 C         140.8519  146.1290  155.8696 C.ar    1  UNL1        0.0717
     25 C         141.7792  145.2374  155.0981 C.ar    1  UNL1        0.0310
     26 C         142.5080  144.1284  155.7974 C.ar    1  UNL1        0.0998
     27 N         142.3095  143.9111  157.2683 N.ar    1  UNL1       -0.2364
     28 C         140.1231  147.2380  155.1702 C.1     1  UNL1        0.1005
     29 N         139.3943  148.3469  154.4708 N.1     1  UNL1       -0.1908
@<TRIPOS>BOND
     1     2     1    1
     2     2     3    1
     3     3     4    1
     4     4    22    1
     5    22    23   ar
     6    23    24   ar
     7    24    28    1
     8    28    29    3
     9    24    25   ar
    10    25    26   ar
    11    26    27   ar
    12     4     5    2
    13     5     6    1
    14     6     8    1
    15     8     9   ar
    16     9    10   ar
    17    10    11   ar
    18    11    12    1
    19    11    13   ar
    20    13    14   ar
    21     6    15    1
    22    15    16   ar
    23    16    17   ar
    24    17    18   ar
    25    18    19    1
    26    18    20   ar
    27    20    21   ar
    28     6     2    1
    29    14     8   ar
    30    21    15   ar
    31    27    22   ar
    32     3     7    1
