@<TRIPOS>MOLECULE
*****
 33 37 0 0 0
SMALL
GASTEIGER

@<TRIPOS>ATOM
      1 N         139.7889  138.4163  162.9184 N.3     1  UNL1       -0.2703
      2 C         139.2552  139.4288  163.8879 C.3     1  UNL1        0.0727
      3 C         140.0158  139.7390  165.1430 C.3     1  UNL1        0.0260
      4 C         141.3102  139.0367  165.4285 C.3     1  UNL1        0.0737
      5 C         141.8439  138.0243  164.4590 C.3     1  UNL1        0.0260
      6 C         141.0832  137.7141  163.2039 C.3     1  UNL1        0.0727
      7 C         142.6111  138.4181  165.8467 C.3     1  UNL1        0.0306
      8 C         143.0084  139.0191  167.1625 C.3     1  UNL1        0.0985
      9 N         141.9530  140.0092  167.5574 N.am    1  UNL1       -0.2580
     10 C         140.9034  140.0200  166.4858 C.2     1  UNL1        0.2284
     11 O         139.6646  140.8657  166.4735 O.2     1  UNL1       -0.2746
     12 C         141.9480  140.8420  168.8048 C.2     1  UNL1        0.0920
     13 C         140.8486  140.8969  169.8239 C.2     1  UNL1        0.1461
     14 CL        139.5612  140.1286  169.7744 Cl      1  UNL1       -0.0744
     15 C         141.2627  141.8551  170.9011 C.2     1  UNL1        0.3534
     16 O         140.4620  142.2131  172.1181 O.2     1  UNL1       -0.2439
     17 O         142.6179  142.3924  170.5480 O.3     1  UNL1       -0.4384
     18 C         143.0414  141.7662  169.2523 C.3     1  UNL1        0.2511
     19 C         139.0283  138.1061  161.6633 C.3     1  UNL1        0.1063
     20 C         139.2728  138.9092  160.4203 C.3     1  UNL1        0.1483
     21 O         139.2903  138.2327  159.0816 O.3     1  UNL1       -0.3786
     22 H         139.4601  138.8904  158.3891 H       1  UNL1        0.2108
     23 C         142.0658  140.0037  160.3846 C.3     1  UNL1        0.0306
     24 C         140.8962  140.9361  160.4980 C.ar    1  UNL1       -0.0238
     25 C         139.4998  140.3889  160.5158 C.ar    1  UNL1        0.0015
     26 C         138.3302  141.3213  160.6292 C.ar    1  UNL1       -0.0020
     27 C         138.5572  142.8009  160.7248 C.ar    1  UNL1        0.0060
     28 C         139.9537  143.3481  160.7070 C.ar    1  UNL1        0.0748
     29 C         141.1232  142.4157  160.5936 C.ar    1  UNL1        0.0233
     30 C         142.3760  143.2406  160.6013 C.3     1  UNL1        0.2352
     31 O         141.9808  144.6827  160.7194 O.3     1  UNL1       -0.4404
     32 C         140.4837  144.7492  160.7847 C.2     1  UNL1        0.3413
     33 O         139.6610  145.9975  160.9064 O.2     1  UNL1       -0.2449
@<TRIPOS>BOND
     1    23    24    1
     2    24    25   ar
     3    25    20    1
     4    20    21    1
     5    20    19    1
     6    19     1    1
     7     1     2    1
     8     2     3    1
     9     3     4    1
    10     4     5    1
    11     5     6    1
    12     4     7    1
    13     7     8    1
    14     8     9    1
    15     9    12    1
    16    12    13    2
    17    13    14    1
    18    13    15    1
    19    15    16    2
    20    15    17    1
    21    17    18    1
    22     9    10   am
    23    10    11    2
    24    25    26   ar
    25    26    27   ar
    26    27    28   ar
    27    28    29   ar
    28    29    30    1
    29    30    31    1
    30    31    32    1
    31    32    33    2
    32    29    24   ar
    33     6     1    1
    34    18    12    1
    35    32    28    1
    36    10     4    1
    37    21    22    1
@<TRIPOS>MOLECULE
*****
 33 37 0 0 0
SMALL
GASTEIGER

@<TRIPOS>ATOM
      1 N         139.4379  138.5917  162.8134 N.3     1  UNL1       -0.2703
      2 C         138.8968  139.1004  164.1165 C.3     1  UNL1        0.0727
      3 C         139.8157  139.2915  165.2866 C.3     1  UNL1        0.0260
      4 C         141.2756  138.9739  165.1535 C.3     1  UNL1        0.0737
      5 C         141.8167  138.4651  163.8503 C.3     1  UNL1        0.0260
      6 C         140.8978  138.2741  162.6802 C.3     1  UNL1        0.0727
      7 C         142.7503  138.7002  165.1704 C.3     1  UNL1        0.0306
      8 C         143.2673  139.0294  166.5396 C.3     1  UNL1        0.0985
      9 N         142.1119  139.5066  167.3689 N.am    1  UNL1       -0.2580
     10 C         140.8811  139.4722  166.5123 C.2     1  UNL1        0.2284
     11 O         139.4984  139.8669  166.9393 O.2     1  UNL1       -0.2746
     12 C         142.1762  139.9416  168.8029 C.2     1  UNL1        0.0920
     13 C         141.7892  141.2902  169.3333 C.2     1  UNL1        0.1461
     14 CL        141.2699  142.4407  168.5228 Cl      1  UNL1       -0.0744
     15 C         142.0126  141.2865  170.8165 C.2     1  UNL1        0.3534
     16 O         141.7560  142.4326  171.7497 O.2     1  UNL1       -0.2439
     17 O         142.5377  139.9356  171.2029 O.3     1  UNL1       -0.4384
     18 C         142.6388  139.1044  169.9583 C.3     1  UNL1        0.2511
     19 C         138.5190  138.4006  161.6432 C.3     1  UNL1        0.1063
     20 C         137.8431  139.5853  161.0190 C.3     1  UNL1        0.1483
     21 O         136.4154  139.4839  160.5703 O.3     1  UNL1       -0.3786
     22 H         136.1344  140.3318  160.1921 H       1  UNL1        0.2108
     23 C         137.3647  141.8715  162.9017 C.3     1  UNL1        0.0306
     24 C         138.3558  142.0144  161.7848 C.ar    1  UNL1       -0.0238
     25 C         138.5950  140.8714  160.8435 C.ar    1  UNL1        0.0015
     26 C         139.5860  141.0143  159.7266 C.ar    1  UNL1       -0.0020
     27 C         140.3378  142.3003  159.5510 C.ar    1  UNL1        0.0060
     28 C         140.0986  143.4434  160.4923 C.ar    1  UNL1        0.0748
     29 C         139.1076  143.3005  161.6092 C.ar    1  UNL1        0.0233
     30 C         139.0828  144.5901  162.3748 C.3     1  UNL1        0.2352
     31 O         140.0586  145.5301  161.7312 O.3     1  UNL1       -0.4404
     32 C         140.6863  144.8214  160.5677 C.2     1  UNL1        0.3413
     33 O         141.7203  145.3908  159.6421 O.2     1  UNL1       -0.2449
@<TRIPOS>BOND
     1    23    24    1
     2    24    25   ar
     3    25    20    1
     4    20    21    1
     5    20    19    1
     6    19     1    1
     7     1     2    1
     8     2     3    1
     9     3     4    1
    10     4     5    1
    11     5     6    1
    12     4     7    1
    13     7     8    1
    14     8     9    1
    15     9    12    1
    16    12    13    2
    17    13    14    1
    18    13    15    1
    19    15    16    2
    20    15    17    1
    21    17    18    1
    22     9    10   am
    23    10    11    2
    24    25    26   ar
    25    26    27   ar
    26    27    28   ar
    27    28    29   ar
    28    29    30    1
    29    30    31    1
    30    31    32    1
    31    32    33    2
    32    29    24   ar
    33     6     1    1
    34    18    12    1
    35    32    28    1
    36    10     4    1
    37    21    22    1
@<TRIPOS>MOLECULE
*****
 33 37 0 0 0
SMALL
GASTEIGER

@<TRIPOS>ATOM
      1 N         139.9941  137.8688  163.9942 N.3     1  UNL1       -0.2703
      2 C         139.5267  137.9355  162.5704 C.3     1  UNL1        0.0727
      3 C         140.5099  138.2047  161.4701 C.3     1  UNL1        0.0260
      4 C         141.9606  138.4071  161.7936 C.3     1  UNL1        0.0737
      5 C         142.4280  138.3404  163.2173 C.3     1  UNL1        0.0260
      6 C         141.4447  138.0712  164.3176 C.3     1  UNL1        0.0727
      7 C         143.4344  138.6287  161.9629 C.3     1  UNL1        0.0306
      8 C         144.0274  138.8605  160.6046 C.3     1  UNL1        0.0985
      9 N         142.9200  138.7822  159.5959 N.am    1  UNL1       -0.2580
     10 C         141.6426  138.5020  160.3306 C.2     1  UNL1        0.2284
     11 O         140.2856  138.3443  159.7114 O.2     1  UNL1       -0.2746
     12 C         143.0645  138.9539  158.1128 C.2     1  UNL1        0.0920
     13 C         142.9402  137.8699  157.0835 C.2     1  UNL1        0.1461
     14 CL        142.6496  136.4238  157.3565 Cl      1  UNL1       -0.0744
     15 C         143.1576  138.4858  155.7332 C.2     1  UNL1        0.3534
     16 O         143.1225  137.7639  154.4188 O.2     1  UNL1       -0.2439
     17 O         143.4163  139.9505  155.9279 O.3     1  UNL1       -0.4384
     18 C         143.3587  140.2397  157.3987 C.3     1  UNL1        0.2511
     19 C         139.0108  137.5996  165.0945 C.3     1  UNL1        0.1063
     20 C         138.2371  138.7317  165.7026 C.3     1  UNL1        0.1483
     21 O         137.3729  138.4894  166.9044 O.3     1  UNL1       -0.3786
     22 H         136.9462  139.3195  167.1685 H       1  UNL1        0.2108
     23 C         140.0453  140.7829  166.9368 C.3     1  UNL1        0.0306
     24 C         139.2317  141.1318  165.7258 C.ar    1  UNL1       -0.0238
     25 C         138.3277  140.1062  165.1087 C.ar    1  UNL1        0.0015
     26 C         137.5141  140.4551  163.8978 C.ar    1  UNL1       -0.0020
     27 C         137.6046  141.8296  163.3040 C.ar    1  UNL1        0.0060
     28 C         138.5086  142.8551  163.9211 C.ar    1  UNL1        0.0748
     29 C         139.3222  142.5062  165.1320 C.ar    1  UNL1        0.0233
     30 C         140.1198  143.7163  165.5190 C.3     1  UNL1        0.2352
     31 O         139.7991  144.8130  164.5472 O.3     1  UNL1       -0.4404
     32 C         138.8034  144.2808  163.5597 C.2     1  UNL1        0.3413
     33 O         138.2070  145.0408  162.4122 O.2     1  UNL1       -0.2449
@<TRIPOS>BOND
     1    23    24    1
     2    24    25   ar
     3    25    20    1
     4    20    21    1
     5    20    19    1
     6    19     1    1
     7     1     2    1
     8     2     3    1
     9     3     4    1
    10     4     5    1
    11     5     6    1
    12     4     7    1
    13     7     8    1
    14     8     9    1
    15     9    12    1
    16    12    13    2
    17    13    14    1
    18    13    15    1
    19    15    16    2
    20    15    17    1
    21    17    18    1
    22     9    10   am
    23    10    11    2
    24    25    26   ar
    25    26    27   ar
    26    27    28   ar
    27    28    29   ar
    28    29    30    1
    29    30    31    1
    30    31    32    1
    31    32    33    2
    32    29    24   ar
    33     6     1    1
    34    18    12    1
    35    32    28    1
    36    10     4    1
    37    21    22    1
@<TRIPOS>MOLECULE
*****
 33 37 0 0 0
SMALL
GASTEIGER

@<TRIPOS>ATOM
      1 N         144.4118  141.6210  162.5368 N.3     1  UNL1       -0.2703
      2 C         143.7993  142.4895  163.5953 C.3     1  UNL1        0.0727
      3 C         143.3721  141.8904  164.9024 C.3     1  UNL1        0.0260
      4 C         143.5575  140.4228  165.1510 C.3     1  UNL1        0.0737
      5 C         144.1700  139.5543  164.0925 C.3     1  UNL1        0.0260
      6 C         144.5972  140.1534  162.7854 C.3     1  UNL1        0.0727
      7 C         143.6791  138.9795  165.5410 C.3     1  UNL1        0.0306
      8 C         143.1305  138.8265  166.9288 C.3     1  UNL1        0.0985
      9 N         142.6698  140.1753  167.3964 N.am    1  UNL1       -0.2580
     10 C         142.9337  141.1618  166.2977 C.2     1  UNL1        0.2284
     11 O         142.6276  142.6297  166.3384 O.2     1  UNL1       -0.2746
     12 C         142.0534  140.4834  168.7286 C.2     1  UNL1        0.0920
     13 C         142.5681  141.4744  169.7302 C.2     1  UNL1        0.1461
     14 CL        143.7895  142.3313  169.5753 Cl      1  UNL1       -0.0744
     15 C         141.6470  141.4581  170.9139 C.2     1  UNL1        0.3534
     16 O         141.7854  142.2958  172.1505 O.2     1  UNL1       -0.2439
     17 O         140.5629  140.4570  170.6440 O.3     1  UNL1       -0.4384
     18 C         140.8142  139.8547  169.2934 C.3     1  UNL1        0.2511
     19 C         144.8390  142.2201  161.2296 C.3     1  UNL1        0.1063
     20 C         143.8567  142.3383  160.1021 C.3     1  UNL1        0.1483
     21 O         144.2985  142.8841  158.7766 O.3     1  UNL1       -0.3786
     22 H         143.5467  142.8928  158.1638 H       1  UNL1        0.2108
     23 C         141.8273  144.3029  161.1129 C.3     1  UNL1        0.0306
     24 C         141.4179  142.8929  160.8055 C.ar    1  UNL1       -0.0238
     25 C         142.4326  141.9106  160.3001 C.ar    1  UNL1        0.0015
     26 C         142.0233  140.5007  159.9927 C.ar    1  UNL1       -0.0020
     27 C         140.5993  140.0730  160.1907 C.ar    1  UNL1        0.0060
     28 C         139.5846  141.0553  160.6960 C.ar    1  UNL1        0.0748
     29 C         139.9939  142.4653  161.0034 C.ar    1  UNL1        0.0233
     30 C         138.7813  143.2055  161.4846 C.3     1  UNL1        0.2352
     31 O         137.6225  142.2531  161.4746 O.3     1  UNL1       -0.4404
     32 C         138.1190  140.9242  160.9872 C.2     1  UNL1        0.3413
     33 O         137.2946  139.6822  160.8203 O.2     1  UNL1       -0.2449
@<TRIPOS>BOND
     1    23    24    1
     2    24    25   ar
     3    25    20    1
     4    20    21    1
     5    20    19    1
     6    19     1    1
     7     1     2    1
     8     2     3    1
     9     3     4    1
    10     4     5    1
    11     5     6    1
    12     4     7    1
    13     7     8    1
    14     8     9    1
    15     9    12    1
    16    12    13    2
    17    13    14    1
    18    13    15    1
    19    15    16    2
    20    15    17    1
    21    17    18    1
    22     9    10   am
    23    10    11    2
    24    25    26   ar
    25    26    27   ar
    26    27    28   ar
    27    28    29   ar
    28    29    30    1
    29    30    31    1
    30    31    32    1
    31    32    33    2
    32    29    24   ar
    33     6     1    1
    34    18    12    1
    35    32    28    1
    36    10     4    1
    37    21    22    1
@<TRIPOS>MOLECULE
*****
 33 37 0 0 0
SMALL
GASTEIGER

@<TRIPOS>ATOM
      1 N         141.5414  137.9772  162.6202 N.3     1  UNL1       -0.2703
      2 C         142.2548  138.7960  163.6549 C.3     1  UNL1        0.0727
      3 C         141.5367  139.2198  164.9018 C.3     1  UNL1        0.0260
      4 C         140.1053  138.8248  165.1139 C.3     1  UNL1        0.0737
      5 C         139.3919  138.0061  164.0792 C.3     1  UNL1        0.0260
      6 C         140.1100  137.5823  162.8323 C.3     1  UNL1        0.0727
      7 C         138.6814  138.5070  165.4626 C.3     1  UNL1        0.0306
      8 C         138.3811  139.1266  166.7953 C.3     1  UNL1        0.0985
      9 N         139.6195  139.8274  167.2703 N.am    1  UNL1       -0.2580
     10 C         140.6851  139.6409  166.2311 C.2     1  UNL1        0.2284
     11 O         142.0846  140.1763  166.2975 O.2     1  UNL1       -0.2746
     12 C         139.7665  140.5821  168.5581 C.2     1  UNL1        0.0920
     13 C         140.1655  142.0214  168.6960 C.2     1  UNL1        0.1461
     14 CL        140.4877  142.9589  167.5701 Cl      1  UNL1       -0.0744
     15 C         140.1858  142.3589  170.1573 C.2     1  UNL1        0.3534
     16 O         140.5319  143.6930  170.7495 O.2     1  UNL1       -0.2439
     17 O         139.7994  141.1282  170.9228 O.3     1  UNL1       -0.4384
     18 C         139.5402  140.0300  169.9343 C.3     1  UNL1        0.2511
     19 C         142.2595  137.5534  161.3732 C.3     1  UNL1        0.1063
     20 C         142.4898  138.5410  160.2680 C.3     1  UNL1        0.1483
     21 O         143.2181  138.1203  159.0259 O.3     1  UNL1       -0.3786
     22 H         143.2808  138.8729  158.4173 H       1  UNL1        0.2108
     23 C         144.3287  140.6923  161.2632 C.3     1  UNL1        0.0306
     24 C         142.9112  141.0249  160.9023 C.ar    1  UNL1       -0.0238
     25 C         141.9918  139.9493  160.4047 C.ar    1  UNL1        0.0015
     26 C         140.5744  140.2820  160.0438 C.ar    1  UNL1       -0.0020
     27 C         140.0764  141.6903  160.1805 C.ar    1  UNL1        0.0060
     28 C         140.9958  142.7659  160.6781 C.ar    1  UNL1        0.0748
     29 C         142.4133  142.4332  161.0390 C.ar    1  UNL1        0.0233
     30 C         143.0827  143.6943  161.4989 C.3     1  UNL1        0.2352
     31 O         142.0790  144.8064  161.4222 O.3     1  UNL1       -0.4404
     32 C         140.7893  144.2326  160.9149 C.2     1  UNL1        0.3413
     33 O         139.5164  144.9921  160.6848 O.2     1  UNL1       -0.2449
@<TRIPOS>BOND
     1    23    24    1
     2    24    25   ar
     3    25    20    1
     4    20    21    1
     5    20    19    1
     6    19     1    1
     7     1     2    1
     8     2     3    1
     9     3     4    1
    10     4     5    1
    11     5     6    1
    12     4     7    1
    13     7     8    1
    14     8     9    1
    15     9    12    1
    16    12    13    2
    17    13    14    1
    18    13    15    1
    19    15    16    2
    20    15    17    1
    21    17    18    1
    22     9    10   am
    23    10    11    2
    24    25    26   ar
    25    26    27   ar
    26    27    28   ar
    27    28    29   ar
    28    29    30    1
    29    30    31    1
    30    31    32    1
    31    32    33    2
    32    29    24   ar
    33     6     1    1
    34    18    12    1
    35    32    28    1
    36    10     4    1
    37    21    22    1
@<TRIPOS>MOLECULE
*****
 33 37 0 0 0
SMALL
GASTEIGER

@<TRIPOS>ATOM
      1 N         143.0681  138.7915  165.0361 N.3     1  UNL1       -0.2703
      2 C         142.0073  138.0719  164.2571 C.3     1  UNL1        0.0727
      3 C         142.0389  138.0854  162.7575 C.3     1  UNL1        0.0260
      4 C         143.1313  138.8185  162.0369 C.3     1  UNL1        0.0737
      5 C         144.1921  139.5380  162.8159 C.3     1  UNL1        0.0260
      6 C         144.1605  139.5245  164.3155 C.3     1  UNL1        0.0727
      7 C         144.1556  139.5049  161.1828 C.3     1  UNL1        0.0306
      8 C         143.8014  139.2586  159.7460 C.3     1  UNL1        0.0985
      9 N         142.5582  138.4199  159.7123 N.am    1  UNL1       -0.2580
     10 C         142.1441  138.1479  161.1281 C.2     1  UNL1        0.2284
     11 O         140.9520  137.3461  161.5595 O.2     1  UNL1       -0.2746
     12 C         141.8531  137.9379  158.4794 C.2     1  UNL1        0.0920
     13 C         140.4235  138.2121  158.1172 C.2     1  UNL1        0.1461
     14 CL        139.4481  139.0165  158.9244 Cl      1  UNL1       -0.0744
     15 C         140.1406  137.5407  156.8061 C.2     1  UNL1        0.3534
     16 O         138.8325  137.5558  156.0719 O.2     1  UNL1       -0.2439
     17 O         141.3952  136.8515  156.3578 O.3     1  UNL1       -0.4384
     18 C         142.4536  137.0970  157.3921 C.3     1  UNL1        0.2511
     19 C         143.0365  138.7780  166.5357 C.3     1  UNL1        0.1063
     20 C         142.1902  139.7700  167.2771 C.3     1  UNL1        0.1483
     21 O         142.0800  139.6936  168.7710 O.3     1  UNL1       -0.3786
     22 H         141.4993  140.4024  169.0891 H       1  UNL1        0.2108
     23 C         139.3593  139.3068  166.3987 C.3     1  UNL1        0.0306
     24 C         140.0387  140.6069  166.0852 C.ar    1  UNL1       -0.0238
     25 C         141.4541  140.8385  166.5244 C.ar    1  UNL1        0.0015
     26 C         142.1334  142.1386  166.2109 C.ar    1  UNL1       -0.0020
     27 C         141.3974  143.2071  165.4583 C.ar    1  UNL1        0.0060
     28 C         139.9820  142.9755  165.0191 C.ar    1  UNL1        0.0748
     29 C         139.3026  141.6754  165.3326 C.ar    1  UNL1        0.0233
     30 C         137.9113  141.7332  164.7750 C.3     1  UNL1        0.2352
     31 O         137.7307  143.0690  164.1169 O.3     1  UNL1       -0.4404
     32 C         139.0105  143.8367  164.2678 C.2     1  UNL1        0.3413
     33 O         139.2727  145.2225  163.7570 O.2     1  UNL1       -0.2449
@<TRIPOS>BOND
     1    23    24    1
     2    24    25   ar
     3    25    20    1
     4    20    21    1
     5    20    19    1
     6    19     1    1
     7     1     2    1
     8     2     3    1
     9     3     4    1
    10     4     5    1
    11     5     6    1
    12     4     7    1
    13     7     8    1
    14     8     9    1
    15     9    12    1
    16    12    13    2
    17    13    14    1
    18    13    15    1
    19    15    16    2
    20    15    17    1
    21    17    18    1
    22     9    10   am
    23    10    11    2
    24    25    26   ar
    25    26    27   ar
    26    27    28   ar
    27    28    29   ar
    28    29    30    1
    29    30    31    1
    30    31    32    1
    31    32    33    2
    32    29    24   ar
    33     6     1    1
    34    18    12    1
    35    32    28    1
    36    10     4    1
    37    21    22    1
@<TRIPOS>MOLECULE
*****
 33 37 0 0 0
SMALL
GASTEIGER

@<TRIPOS>ATOM
      1 N         141.9611  144.0370  162.6761 N.3     1  UNL1       -0.2703
      2 C         140.7115  143.7762  163.4636 C.3     1  UNL1        0.0727
      3 C         140.8036  143.2270  164.8564 C.3     1  UNL1        0.0260
      4 C         142.1454  142.9386  165.4616 C.3     1  UNL1        0.0737
      5 C         143.3951  143.1993  164.6740 C.3     1  UNL1        0.0260
      6 C         143.3030  143.7485  163.2813 C.3     1  UNL1        0.0727
      7 C         143.4101  142.6028  166.1951 C.3     1  UNL1        0.0306
      8 C         143.0353  142.0854  167.5523 C.3     1  UNL1        0.0985
      9 N         141.5391  142.1014  167.6576 N.am    1  UNL1       -0.2580
     10 C         140.9891  142.6287  166.3655 C.2     1  UNL1        0.2284
     11 O         139.5377  142.8136  166.0352 O.2     1  UNL1       -0.2746
     12 C         140.7342  141.6665  168.8462 C.2     1  UNL1        0.0920
     13 C         139.6845  140.5950  168.8559 C.2     1  UNL1        0.1461
     14 CL        139.2554  139.7703  167.6787 Cl      1  UNL1       -0.0744
     15 C         139.1392  140.4930  170.2495 C.2     1  UNL1        0.3534
     16 O         138.0691  139.5483  170.7107 O.2     1  UNL1       -0.2439
     17 O         139.8518  141.5014  171.1012 O.3     1  UNL1       -0.4384
     18 C         140.8376  142.2266  170.2338 C.3     1  UNL1        0.2511
     19 C         141.8690  144.5862  161.2832 C.3     1  UNL1        0.1063
     20 C         141.4049  143.7075  160.1597 C.3     1  UNL1        0.1483
     21 O         141.6858  144.0961  158.7384 O.3     1  UNL1       -0.3786
     22 H         141.3208  143.4244  158.1413 H       1  UNL1        0.2108
     23 C         142.9127  141.1594  160.6433 C.3     1  UNL1        0.0306
     24 C         141.4138  141.1660  160.6992 C.ar    1  UNL1       -0.0238
     25 C         140.6599  142.4400  160.4574 C.ar    1  UNL1        0.0015
     26 C         139.1609  142.4467  160.5133 C.ar    1  UNL1       -0.0020
     27 C         138.4159  141.1793  160.8110 C.ar    1  UNL1        0.0060
     28 C         139.1698  139.9053  161.0528 C.ar    1  UNL1        0.0748
     29 C         140.6687  139.8987  160.9969 C.ar    1  UNL1        0.0233
     30 C         141.1368  138.5011  161.2759 C.3     1  UNL1        0.2352
     31 O         139.9271  137.6440  161.5042 O.3     1  UNL1       -0.4404
     32 C         138.7115  138.5119  161.3663 C.2     1  UNL1        0.3413
     33 O         137.2875  138.0648  161.5157 O.2     1  UNL1       -0.2449
@<TRIPOS>BOND
     1    23    24    1
     2    24    25   ar
     3    25    20    1
     4    20    21    1
     5    20    19    1
     6    19     1    1
     7     1     2    1
     8     2     3    1
     9     3     4    1
    10     4     5    1
    11     5     6    1
    12     4     7    1
    13     7     8    1
    14     8     9    1
    15     9    12    1
    16    12    13    2
    17    13    14    1
    18    13    15    1
    19    15    16    2
    20    15    17    1
    21    17    18    1
    22     9    10   am
    23    10    11    2
    24    25    26   ar
    25    26    27   ar
    26    27    28   ar
    27    28    29   ar
    28    29    30    1
    29    30    31    1
    30    31    32    1
    31    32    33    2
    32    29    24   ar
    33     6     1    1
    34    18    12    1
    35    32    28    1
    36    10     4    1
    37    21    22    1
@<TRIPOS>MOLECULE
*****
 33 37 0 0 0
SMALL
GASTEIGER

@<TRIPOS>ATOM
      1 N         144.9678  141.5225  163.2273 N.3     1  UNL1       -0.2703
      2 C         144.6934  141.8786  161.7962 C.3     1  UNL1        0.0727
      3 C         144.0912  140.8616  160.8726 C.3     1  UNL1        0.0260
      4 C         143.7635  139.4886  161.3800 C.3     1  UNL1        0.0737
      5 C         144.0379  139.1326  162.8110 C.3     1  UNL1        0.0260
      6 C         144.6401  140.1495  163.7346 C.3     1  UNL1        0.0727
      7 C         143.3847  138.0832  161.7424 C.3     1  UNL1        0.0306
      8 C         142.8214  137.4245  160.5181 C.3     1  UNL1        0.0985
      9 N         142.8522  138.4228  159.3989 N.am    1  UNL1       -0.2580
     10 C         143.4344  139.6985  159.9316 C.2     1  UNL1        0.2284
     11 O         143.6498  140.9622  159.1527 O.2     1  UNL1       -0.2746
     12 C         142.3832  138.1869  157.9939 C.2     1  UNL1        0.0920
     13 C         141.3221  138.9670  157.2759 C.2     1  UNL1        0.1461
     14 CL        140.5437  140.1200  157.8369 Cl      1  UNL1       -0.0744
     15 C         141.1759  138.3916  155.8984 C.2     1  UNL1        0.3534
     16 O         140.2258  138.8683  154.8400 O.2     1  UNL1       -0.2439
     17 O         142.1467  137.2560  155.7649 O.3     1  UNL1       -0.4384
     18 C         142.8928  137.1295  157.0601 C.3     1  UNL1        0.2511
     19 C         145.5700  142.5395  164.1510 C.3     1  UNL1        0.1063
     20 C         144.6814  143.4377  164.9593 C.3     1  UNL1        0.1483
     21 O         145.2020  144.0782  166.2118 O.3     1  UNL1       -0.3786
     22 H         144.5054  144.6232  166.6100 H       1  UNL1        0.2108
     23 C         142.4175  141.8936  166.1804 C.3     1  UNL1        0.0306
     24 C         142.1401  142.9235  165.1257 C.ar    1  UNL1       -0.0238
     25 C         143.2720  143.6956  164.5152 C.ar    1  UNL1        0.0015
     26 C         142.9945  144.7255  163.4605 C.ar    1  UNL1       -0.0020
     27 C         141.5852  144.9833  163.0163 C.ar    1  UNL1        0.0060
     28 C         140.4533  144.2112  163.6268 C.ar    1  UNL1        0.0748
     29 C         140.7308  143.1814  164.6815 C.ar    1  UNL1        0.0233
     30 C         139.4211  142.5808  165.0988 C.3     1  UNL1        0.2352
     31 O         138.3343  143.2394  164.3020 O.3     1  UNL1       -0.4404
     32 C         138.9722  144.2471  163.3923 C.2     1  UNL1        0.3413
     33 O         138.2550  145.1349  162.4189 O.2     1  UNL1       -0.2449
@<TRIPOS>BOND
     1    23    24    1
     2    24    25   ar
     3    25    20    1
     4    20    21    1
     5    20    19    1
     6    19     1    1
     7     1     2    1
     8     2     3    1
     9     3     4    1
    10     4     5    1
    11     5     6    1
    12     4     7    1
    13     7     8    1
    14     8     9    1
    15     9    12    1
    16    12    13    2
    17    13    14    1
    18    13    15    1
    19    15    16    2
    20    15    17    1
    21    17    18    1
    22     9    10   am
    23    10    11    2
    24    25    26   ar
    25    26    27   ar
    26    27    28   ar
    27    28    29   ar
    28    29    30    1
    29    30    31    1
    30    31    32    1
    31    32    33    2
    32    29    24   ar
    33     6     1    1
    34    18    12    1
    35    32    28    1
    36    10     4    1
    37    21    22    1
@<TRIPOS>MOLECULE
*****
 33 37 0 0 0
SMALL
GASTEIGER

@<TRIPOS>ATOM
      1 N         139.7976  138.3936  162.6929 N.3     1  UNL1       -0.2703
      2 C         139.2711  139.4405  163.6292 C.3     1  UNL1        0.0727
      3 C         140.0190  139.7652  164.8882 C.3     1  UNL1        0.0260
      4 C         141.2936  139.0431  165.2108 C.3     1  UNL1        0.0737
      5 C         141.8201  137.9962  164.2745 C.3     1  UNL1        0.0260
      6 C         141.0721  137.6715  163.0155 C.3     1  UNL1        0.0727
      7 C         142.5745  138.4076  165.6642 C.3     1  UNL1        0.0306
      8 C         142.9646  139.0321  166.9711 C.3     1  UNL1        0.0985
      9 N         141.9246  140.0535  167.3254 N.am    1  UNL1       -0.2580
     10 C         140.8920  140.0603  166.2376 C.2     1  UNL1        0.2284
     11 O         139.6719  140.9312  166.1855 O.2     1  UNL1       -0.2746
     12 C         141.9185  140.9165  168.5522 C.2     1  UNL1        0.0920
     13 C         140.8642  140.9248  169.6191 C.2     1  UNL1        0.1461
     14 CL        139.6307  140.0716  169.6465 Cl      1  UNL1       -0.0744
     15 C         141.2597  141.9362  170.6538 C.2     1  UNL1        0.3534
     16 O         140.4913  142.2720  171.8976 O.2     1  UNL1       -0.2439
     17 O         142.5586  142.5530  170.2265 O.3     1  UNL1       -0.4384
     18 C         142.9657  141.9227  168.9276 C.3     1  UNL1        0.2511
     19 C         139.0496  138.0689  161.4338 C.3     1  UNL1        0.1063
     20 C         139.0763  139.0245  160.2779 C.3     1  UNL1        0.1483
     21 O         137.8003  139.6375  159.7820 O.3     1  UNL1       -0.3786
     22 H         137.9931  140.2266  159.0359 H       1  UNL1        0.2108
     23 C         140.5503  141.5143  161.0704 C.3     1  UNL1        0.0306
     24 C         141.1160  140.6120  160.0141 C.ar    1  UNL1       -0.0238
     25 C         140.3790  139.3671  159.6179 C.ar    1  UNL1        0.0015
     26 C         140.9447  138.4647  158.5616 C.ar    1  UNL1       -0.0020
     27 C         142.2474  138.8072  157.9016 C.ar    1  UNL1        0.0060
     28 C         142.9844  140.0521  158.2978 C.ar    1  UNL1        0.0748
     29 C         142.4187  140.9545  159.3541 C.ar    1  UNL1        0.0233
     30 C         143.3639  142.1050  159.5356 C.3     1  UNL1        0.2352
     31 O         144.5137  141.9137  158.5916 O.3     1  UNL1       -0.4404
     32 C         144.2791  140.6450  157.8266 C.2     1  UNL1        0.3413
     33 O         145.1810  140.0700  156.7749 O.2     1  UNL1       -0.2449
@<TRIPOS>BOND
     1    23    24    1
     2    24    25   ar
     3    25    20    1
     4    20    21    1
     5    20    19    1
     6    19     1    1
     7     1     2    1
     8     2     3    1
     9     3     4    1
    10     4     5    1
    11     5     6    1
    12     4     7    1
    13     7     8    1
    14     8     9    1
    15     9    12    1
    16    12    13    2
    17    13    14    1
    18    13    15    1
    19    15    16    2
    20    15    17    1
    21    17    18    1
    22     9    10   am
    23    10    11    2
    24    25    26   ar
    25    26    27   ar
    26    27    28   ar
    27    28    29   ar
    28    29    30    1
    29    30    31    1
    30    31    32    1
    31    32    33    2
    32    29    24   ar
    33     6     1    1
    34    18    12    1
    35    32    28    1
    36    10     4    1
    37    21    22    1
