@<TRIPOS>MOLECULE
*****
 40 46 0 0 0
SMALL
GASTEIGER

@<TRIPOS>ATOM
      1 C         137.7423  139.5604  162.0348 C.3     1  UNL1        0.0700
      2 C         137.6379  140.6784  163.0294 C.3     1  UNL1        0.0193
      3 C         138.2449  140.5284  164.3928 C.3     1  UNL1        0.0287
      4 C         138.9565  139.2604  164.7617 C.3     1  UNL1        0.0955
      5 C         139.0610  138.1425  163.7671 C.3     1  UNL1        0.0287
      6 C         138.4539  138.2925  162.4037 C.3     1  UNL1        0.0193
      7 O         138.6397  139.2963  164.0025 O.3     1  UNL1       -0.3571
      8 C         138.0908  139.4319  162.7697 C.3     1  UNL1        0.1562
      9 N         137.1353  139.7103  160.6713 N.3     1  UNL1       -0.2926
     10 H         136.8629  138.7760  160.3659 H       1  UNL1        0.1236
     11 C         137.9362  140.3142  159.5561 C.3     1  UNL1        0.1152
     12 O         143.8009  144.6937  162.2350 O.2     1  UNL1       -0.2738
     13 C         143.3171  143.4687  161.5170 C.2     1  UNL1        0.2385
     14 C         144.3045  142.4787  160.9741 C.3     1  UNL1        0.1473
     15 S         143.8208  141.2537  160.2560 S.3     1  UNL1       -0.1011
     16 C         142.3496  141.0188  160.0811 C.ar    1  UNL1        0.0574
     17 C         141.8659  139.7939  159.3631 C.ar    1  UNL1        0.0102
     18 C         140.3947  139.5591  159.1881 C.ar    1  UNL1        0.0167
     19 C         139.4074  140.5491  159.7311 C.ar    1  UNL1        0.0764
     20 N         139.8911  141.7741  160.4491 N.ar    1  UNL1       -0.2330
     21 C         141.3623  142.0089  160.6241 C.ar    1  UNL1        0.1395
     22 N         141.8460  143.2339  161.3420 N.am    1  UNL1       -0.2682
     23 H         141.1979  143.8837  161.6984 H       1  UNL1        0.1563
     24 C         139.5636  139.1105  166.1252 C.3     1  UNL1        0.0604
     25 C         140.6844  140.0121  166.5504 C.3     1  UNL1        0.1335
     26 O         141.2299  139.7174  165.1845 O.3     1  UNL1       -0.3806
     27 C         141.9193  140.8521  166.6901 C.3     1  UNL1        0.1402
     28 N         141.9027  141.4775  168.0534 N.ar    1  UNL1       -0.2915
     29 C         142.8605  142.4013  168.7456 C.ar    1  UNL1        0.2611
     30 O         144.1056  142.8548  168.0427 O.2     1  UNL1       -0.2670
     31 C         142.5731  142.8717  170.1406 C.ar    1  UNL1        0.0623
     32 C         141.3280  142.4182  170.8435 C.ar    1  UNL1        0.0254
     33 C         140.3702  141.4944  170.1513 C.ar    1  UNL1        0.0972
     34 N         139.0672  140.8877  170.6035 N.ar    1  UNL1       -0.2400
     35 C         138.2071  139.9679  169.7884 C.ar    1  UNL1        0.1282
     36 C         138.6259  139.5832  168.4004 C.ar    1  UNL1        0.1588
     37 F         137.7658  138.6635  167.5854 F       1  UNL1       -0.2027
     38 C         139.9046  140.1184  167.8273 C.ar    1  UNL1        0.0500
     39 C         140.6575  141.0240  168.7563 C.ar    1  UNL1        0.0806
     40 H         142.0696  140.1877  165.0633 H       1  UNL1        0.2108
@<TRIPOS>BOND
     1    12    13    2
     2    13    14    1
     3    14    15    1
     4    15    16    1
     5    16    17   ar
     6    17    18   ar
     7    18    19   ar
     8    19    11    1
     9    11     9    1
    10     9     1    1
    11     1     2    1
    12     2     3    1
    13     3     4    1
    14     4    24    1
    15    24    25    1
    16    25    26    1
    17    25    27    1
    18    27    28    1
    19    28    29   ar
    20    29    30    2
    21    29    31   ar
    22    31    32   ar
    23    32    33   ar
    24    33    34   ar
    25    34    35   ar
    26    35    36   ar
    27    36    37    1
    28    36    38   ar
    29    38    39   ar
    30     4     5    1
    31     5     6    1
    32     4     7    1
    33     7     8    1
    34    19    20   ar
    35    20    21   ar
    36    21    22    1
    37    22    13   am
    38    21    16   ar
    39     6     1    1
    40     8     1    1
    41    38    25    1
    42    39    28   ar
    43    39    33   ar
    44     9    10    1
    45    26    40    1
    46    22    23    1
@<TRIPOS>MOLECULE
*****
 40 46 0 0 0
SMALL
GASTEIGER

@<TRIPOS>ATOM
      1 C         137.7132  139.5753  161.8884 C.3     1  UNL1        0.0700
      2 C         138.3603  138.2773  162.2713 C.3     1  UNL1        0.0193
      3 C         138.9434  138.1058  163.6426 C.3     1  UNL1        0.0287
      4 C         138.8795  139.2323  164.6312 C.3     1  UNL1        0.0955
      5 C         138.2324  140.5302  164.2483 C.3     1  UNL1        0.0287
      6 C         137.6493  140.7017  162.8769 C.3     1  UNL1        0.0193
      7 O         138.5462  139.3733  163.8916 O.3     1  UNL1       -0.3571
      8 C         138.0189  139.5284  162.6516 C.3     1  UNL1        0.1562
      9 N         137.1301  139.7468  160.5171 N.3     1  UNL1       -0.2926
     10 H         136.8262  138.8232  160.2087 H       1  UNL1        0.1236
     11 C         137.9680  140.3182  159.4120 C.3     1  UNL1        0.1152
     12 O         141.0113  134.9991  154.5957 O.2     1  UNL1       -0.2738
     13 C         141.1838  136.0111  155.6896 C.2     1  UNL1        0.2385
     14 C         142.5433  136.2617  156.2716 C.3     1  UNL1        0.1473
     15 S         142.7159  137.2736  157.3655 S.3     1  UNL1       -0.1011
     16 C         141.5289  138.0347  157.8771 C.ar    1  UNL1        0.0574
     17 C         141.7014  139.0466  158.9709 C.ar    1  UNL1        0.0102
     18 C         140.5144  139.8077  159.4825 C.ar    1  UNL1        0.0167
     19 C         139.1550  139.5570  158.9003 C.ar    1  UNL1        0.0764
     20 N         138.9825  138.5452  157.8065 N.ar    1  UNL1       -0.2330
     21 C         140.1694  137.7840  157.2949 C.ar    1  UNL1        0.1395
     22 N         139.9968  136.7722  156.2012 N.am    1  UNL1       -0.2682
     23 H         139.1046  136.6077  155.8191 H       1  UNL1        0.1563
     24 C         139.4626  139.0608  166.0025 C.3     1  UNL1        0.0604
     25 C         140.5699  139.9609  166.4646 C.3     1  UNL1        0.1335
     26 O         141.1421  139.6943  165.1039 O.3     1  UNL1       -0.3806
     27 C         141.7968  140.8054  166.6423 C.3     1  UNL1        0.1402
     28 N         141.7514  141.4057  168.0162 N.ar    1  UNL1       -0.2915
     29 C         142.6907  142.3222  168.7425 C.ar    1  UNL1        0.2611
     30 O         143.9457  142.7956  168.0711 O.2     1  UNL1       -0.2670
     31 C         142.3750  142.7654  170.1403 C.ar    1  UNL1        0.0623
     32 C         141.1200  142.2920  170.8118 C.ar    1  UNL1        0.0254
     33 C         140.1807  141.3754  170.0854 C.ar    1  UNL1        0.0972
     34 N         138.8733  140.7530  170.5024 N.ar    1  UNL1       -0.2400
     35 C         138.0340  139.8433  169.6551 C.ar    1  UNL1        0.1282
     36 C         138.4804  139.4865  168.2683 C.ar    1  UNL1        0.1588
     37 F         137.6411  138.5768  167.4210 F       1  UNL1       -0.2027
     38 C         139.7662  140.0394  167.7287 C.ar    1  UNL1        0.0500
     39 C         140.4964  140.9323  168.6876 C.ar    1  UNL1        0.0806
     40 H         141.9810  140.1716  165.0067 H       1  UNL1        0.2108
@<TRIPOS>BOND
     1    12    13    2
     2    13    14    1
     3    14    15    1
     4    15    16    1
     5    16    17   ar
     6    17    18   ar
     7    18    19   ar
     8    19    11    1
     9    11     9    1
    10     9     1    1
    11     1     2    1
    12     2     3    1
    13     3     4    1
    14     4    24    1
    15    24    25    1
    16    25    26    1
    17    25    27    1
    18    27    28    1
    19    28    29   ar
    20    29    30    2
    21    29    31   ar
    22    31    32   ar
    23    32    33   ar
    24    33    34   ar
    25    34    35   ar
    26    35    36   ar
    27    36    37    1
    28    36    38   ar
    29    38    39   ar
    30     4     5    1
    31     5     6    1
    32     4     7    1
    33     7     8    1
    34    19    20   ar
    35    20    21   ar
    36    21    22    1
    37    22    13   am
    38    21    16   ar
    39     6     1    1
    40     8     1    1
    41    38    25    1
    42    39    28   ar
    43    39    33   ar
    44     9    10    1
    45    26    40    1
    46    22    23    1
@<TRIPOS>MOLECULE
*****
 40 46 0 0 0
SMALL
GASTEIGER

@<TRIPOS>ATOM
      1 C         142.5097  138.4306  159.6466 C.3     1  UNL1        0.0700
      2 C         141.5974  139.6198  159.5872 C.3     1  UNL1        0.0193
      3 C         140.8775  140.0752  160.8218 C.3     1  UNL1        0.0287
      4 C         141.0699  139.3415  162.1159 C.3     1  UNL1        0.0955
      5 C         141.9821  138.1523  162.1754 C.3     1  UNL1        0.0287
      6 C         142.7020  137.6969  160.9407 C.3     1  UNL1        0.0193
      7 O         141.4857  139.0546  161.4657 O.3     1  UNL1       -0.3571
      8 C         142.1367  138.6428  160.3494 C.3     1  UNL1        0.1562
      9 N         143.2296  137.9751  158.4120 N.3     1  UNL1       -0.2926
     10 H         143.8326  138.7449  158.1219 H       1  UNL1        0.1236
     11 C         142.4501  137.5556  157.2011 C.3     1  UNL1        0.1152
     12 O         144.8231  130.1988  158.1992 O.2     1  UNL1       -0.2738
     13 C         143.9856  131.2058  157.4679 C.2     1  UNL1        0.2385
     14 C         143.1016  130.7673  156.3383 C.3     1  UNL1        0.1473
     15 S         142.2640  131.7742  155.6070 S.3     1  UNL1       -0.1011
     16 C         142.3106  133.2196  156.0055 C.ar    1  UNL1        0.0574
     17 C         141.4731  134.2265  155.2743 C.ar    1  UNL1        0.0102
     18 C         141.5196  135.6718  155.6729 C.ar    1  UNL1        0.0167
     19 C         142.4036  136.1102  156.8026 C.ar    1  UNL1        0.0764
     20 N         143.2411  135.1033  157.5338 N.ar    1  UNL1       -0.2330
     21 C         143.1946  133.6580  157.1352 C.ar    1  UNL1        0.1395
     22 N         144.0321  132.6511  157.8665 N.am    1  UNL1       -0.2682
     23 H         144.6123  132.9389  158.6079 H       1  UNL1        0.1563
     24 C         140.3499  139.7969  163.3505 C.3     1  UNL1        0.0604
     25 C         141.1052  140.4869  164.4476 C.3     1  UNL1        0.1335
     26 O         141.9972  140.9441  163.3317 O.3     1  UNL1       -0.3806
     27 C         142.0469  141.2724  165.3114 C.3     1  UNL1        0.1402
     28 N         141.5790  141.1564  166.7319 N.ar    1  UNL1       -0.2915
     29 C         142.1148  141.7206  168.0143 C.ar    1  UNL1        0.2611
     30 O         143.3456  142.5778  168.0002 O.2     1  UNL1       -0.2670
     31 C         141.4197  141.4276  169.3108 C.ar    1  UNL1        0.0623
     32 C         140.1888  140.5704  169.3249 C.ar    1  UNL1        0.0254
     33 C         139.6531  140.0062  168.0425 C.ar    1  UNL1        0.0972
     34 N         138.4595  139.1310  167.7599 N.ar    1  UNL1       -0.2400
     35 C         138.0429  138.6394  166.4054 C.ar    1  UNL1        0.1282
     36 C         138.8408  139.0166  165.1926 C.ar    1  UNL1        0.1588
     37 F         138.4242  138.5249  163.8381 F       1  UNL1       -0.2027
     38 C         140.0553  139.8854  165.3342 C.ar    1  UNL1        0.0500
     39 C         140.3482  140.2992  166.7460 C.ar    1  UNL1        0.0806
     40 H         142.7096  141.4949  163.6922 H       1  UNL1        0.2108
@<TRIPOS>BOND
     1    12    13    2
     2    13    14    1
     3    14    15    1
     4    15    16    1
     5    16    17   ar
     6    17    18   ar
     7    18    19   ar
     8    19    11    1
     9    11     9    1
    10     9     1    1
    11     1     2    1
    12     2     3    1
    13     3     4    1
    14     4    24    1
    15    24    25    1
    16    25    26    1
    17    25    27    1
    18    27    28    1
    19    28    29   ar
    20    29    30    2
    21    29    31   ar
    22    31    32   ar
    23    32    33   ar
    24    33    34   ar
    25    34    35   ar
    26    35    36   ar
    27    36    37    1
    28    36    38   ar
    29    38    39   ar
    30     4     5    1
    31     5     6    1
    32     4     7    1
    33     7     8    1
    34    19    20   ar
    35    20    21   ar
    36    21    22    1
    37    22    13   am
    38    21    16   ar
    39     6     1    1
    40     8     1    1
    41    38    25    1
    42    39    28   ar
    43    39    33   ar
    44     9    10    1
    45    26    40    1
    46    22    23    1
@<TRIPOS>MOLECULE
*****
 40 46 0 0 0
SMALL
GASTEIGER

@<TRIPOS>ATOM
      1 C         138.6180  141.1788  163.8365 C.3     1  UNL1        0.0700
      2 C         139.1218  140.8509  162.4622 C.3     1  UNL1        0.0193
      3 C         140.0056  141.8213  161.7360 C.3     1  UNL1        0.0287
      4 C         140.3856  143.1196  162.3842 C.3     1  UNL1        0.0955
      5 C         139.8818  143.4476  163.7584 C.3     1  UNL1        0.0287
      6 C         138.9980  142.4771  164.4845 C.3     1  UNL1        0.0193
      7 O         139.8989  142.6195  162.8213 O.3     1  UNL1       -0.3571
      8 C         139.0999  141.7421  163.4779 C.3     1  UNL1        0.1562
      9 N         137.7342  140.2084  164.5626 N.3     1  UNL1       -0.2926
     10 H         137.1303  140.7596  165.1724 H       1  UNL1        0.1236
     11 C         138.3417  139.1322  165.4128 C.3     1  UNL1        0.1152
     12 O         140.5518  142.1254  172.2617 O.2     1  UNL1       -0.2738
     13 C         140.8985  141.4679  170.9587 C.2     1  UNL1        0.2385
     14 C         142.3286  141.1508  170.6358 C.3     1  UNL1        0.1473
     15 S         142.6753  140.4934  169.3329 S.3     1  UNL1       -0.1011
     16 C         141.5919  140.1531  168.3529 C.ar    1  UNL1        0.0574
     17 C         141.9386  139.4957  167.0499 C.ar    1  UNL1        0.0102
     18 C         140.8551  139.1554  166.0699 C.ar    1  UNL1        0.0167
     19 C         139.4250  139.4725  166.3929 C.ar    1  UNL1        0.0764
     20 N         139.0784  140.1300  167.6958 N.ar    1  UNL1       -0.2330
     21 C         140.1618  140.4702  168.6758 C.ar    1  UNL1        0.1395
     22 N         139.8151  141.1276  169.9787 N.am    1  UNL1       -0.2682
     23 H         138.8765  141.3358  170.1906 H       1  UNL1        0.1563
     24 C         141.2693  144.0900  161.6580 C.3     1  UNL1        0.0604
     25 C         140.7475  144.8295  160.4618 C.3     1  UNL1        0.1335
     26 O         139.7357  145.3652  161.4310 O.3     1  UNL1       -0.3806
     27 C         140.0141  145.6810  159.4683 C.3     1  UNL1        0.1402
     28 N         140.6817  145.5170  158.1351 N.ar    1  UNL1       -0.2915
     29 C         140.3942  146.1123  156.7886 C.ar    1  UNL1        0.2611
     30 O         139.2482  147.0651  156.6191 O.2     1  UNL1       -0.2670
     31 C         141.2526  145.7546  155.6117 C.ar    1  UNL1        0.0623
     32 C         142.3986  144.8017  155.7813 C.ar    1  UNL1        0.0254
     33 C         142.6861  144.2065  157.1278 C.ar    1  UNL1        0.0972
     34 N         143.7488  143.2410  157.5847 N.ar    1  UNL1       -0.2400
     35 C         143.9138  142.7282  158.9846 C.ar    1  UNL1        0.1282
     36 C         142.9736  143.1773  160.0636 C.ar    1  UNL1        0.1588
     37 F         143.1386  142.6644  161.4635 F       1  UNL1       -0.2027
     38 C         141.8683  144.1393  159.7427 C.ar    1  UNL1        0.0500
     39 C         141.8277  144.5642  158.3047 C.ar    1  UNL1        0.0806
     40 H         139.1329  145.9684  160.9688 H       1  UNL1        0.2108
@<TRIPOS>BOND
     1    12    13    2
     2    13    14    1
     3    14    15    1
     4    15    16    1
     5    16    17   ar
     6    17    18   ar
     7    18    19   ar
     8    19    11    1
     9    11     9    1
    10     9     1    1
    11     1     2    1
    12     2     3    1
    13     3     4    1
    14     4    24    1
    15    24    25    1
    16    25    26    1
    17    25    27    1
    18    27    28    1
    19    28    29   ar
    20    29    30    2
    21    29    31   ar
    22    31    32   ar
    23    32    33   ar
    24    33    34   ar
    25    34    35   ar
    26    35    36   ar
    27    36    37    1
    28    36    38   ar
    29    38    39   ar
    30     4     5    1
    31     5     6    1
    32     4     7    1
    33     7     8    1
    34    19    20   ar
    35    20    21   ar
    36    21    22    1
    37    22    13   am
    38    21    16   ar
    39     6     1    1
    40     8     1    1
    41    38    25    1
    42    39    28   ar
    43    39    33   ar
    44     9    10    1
    45    26    40    1
    46    22    23    1
@<TRIPOS>MOLECULE
*****
 40 46 0 0 0
SMALL
GASTEIGER

@<TRIPOS>ATOM
      1 C         138.1600  139.6674  160.9778 C.3     1  UNL1        0.0700
      2 C         138.3431  140.7901  161.9555 C.3     1  UNL1        0.0193
      3 C         139.1208  140.5655  163.2183 C.3     1  UNL1        0.0287
      4 C         139.7154  139.2182  163.5034 C.3     1  UNL1        0.0955
      5 C         139.5323  138.0955  162.5257 C.3     1  UNL1        0.0287
      6 C         138.7546  138.3202  161.2629 C.3     1  UNL1        0.0193
      7 O         139.2973  139.2933  162.7981 O.3     1  UNL1       -0.3571
      8 C         138.5941  139.4964  161.6563 C.3     1  UNL1        0.1562
      9 N         137.3823  139.8920  159.7149 N.3     1  UNL1       -0.2926
     10 H         136.9263  139.0081  159.4887 H       1  UNL1        0.1236
     11 C         138.0868  140.3466  158.4712 C.3     1  UNL1        0.1152
     12 O         141.2224  134.2988  154.6839 O.2     1  UNL1       -0.2738
     13 C         141.3861  135.5744  155.4560 C.2     1  UNL1        0.2385
     14 C         142.7587  136.1095  155.7378 C.3     1  UNL1        0.1473
     15 S         142.9225  137.3851  156.5100 S.3     1  UNL1       -0.1011
     16 C         141.7136  138.1254  157.0002 C.ar    1  UNL1        0.0574
     17 C         141.8773  139.4010  157.7724 C.ar    1  UNL1        0.0102
     18 C         140.6684  140.1413  158.2626 C.ar    1  UNL1        0.0167
     19 C         139.2957  139.6061  157.9808 C.ar    1  UNL1        0.0764
     20 N         139.1320  138.3306  157.2087 N.ar    1  UNL1       -0.2330
     21 C         140.3410  137.5903  156.7184 C.ar    1  UNL1        0.1395
     22 N         140.1772  136.3147  155.9463 N.am    1  UNL1       -0.2682
     23 H         139.2763  135.9635  155.7613 H       1  UNL1        0.1563
     24 C         140.4931  138.9936  164.7663 C.3     1  UNL1        0.0604
     25 C         139.8407  139.2161  166.0985 C.3     1  UNL1        0.1335
     26 O         138.8406  138.2159  165.5993 O.3     1  UNL1       -0.3806
     27 C         138.9792  139.2296  167.3264 C.3     1  UNL1        0.1402
     28 N         139.5833  140.1917  168.3059 N.ar    1  UNL1       -0.2915
     29 C         139.1685  140.6136  169.6843 C.ar    1  UNL1        0.2611
     30 O         137.9337  140.0325  170.3068 O.2     1  UNL1       -0.2670
     31 C         139.9885  141.6167  170.4401 C.ar    1  UNL1        0.0623
     32 C         141.2234  142.1978  169.8177 C.ar    1  UNL1        0.0254
     33 C         141.6382  141.7759  168.4393 C.ar    1  UNL1        0.0972
     34 N         142.8074  142.1842  167.5811 N.ar    1  UNL1       -0.2400
     35 C         143.0960  141.6690  166.2023 C.ar    1  UNL1        0.1282
     36 C         142.1808  140.6618  165.5713 C.ar    1  UNL1        0.1588
     37 F         142.4694  140.1466  164.1925 F       1  UNL1       -0.2027
     38 C         140.9772  140.1699  166.3192 C.ar    1  UNL1        0.0500
     39 C         140.8182  140.7728  167.6835 C.ar    1  UNL1        0.0806
     40 H         138.1609  138.0726  166.2764 H       1  UNL1        0.2108
@<TRIPOS>BOND
     1    12    13    2
     2    13    14    1
     3    14    15    1
     4    15    16    1
     5    16    17   ar
     6    17    18   ar
     7    18    19   ar
     8    19    11    1
     9    11     9    1
    10     9     1    1
    11     1     2    1
    12     2     3    1
    13     3     4    1
    14     4    24    1
    15    24    25    1
    16    25    26    1
    17    25    27    1
    18    27    28    1
    19    28    29   ar
    20    29    30    2
    21    29    31   ar
    22    31    32   ar
    23    32    33   ar
    24    33    34   ar
    25    34    35   ar
    26    35    36   ar
    27    36    37    1
    28    36    38   ar
    29    38    39   ar
    30     4     5    1
    31     5     6    1
    32     4     7    1
    33     7     8    1
    34    19    20   ar
    35    20    21   ar
    36    21    22    1
    37    22    13   am
    38    21    16   ar
    39     6     1    1
    40     8     1    1
    41    38    25    1
    42    39    28   ar
    43    39    33   ar
    44     9    10    1
    45    26    40    1
    46    22    23    1
@<TRIPOS>MOLECULE
*****
 40 46 0 0 0
SMALL
GASTEIGER

@<TRIPOS>ATOM
      1 C         141.7417  144.4979  161.8209 C.3     1  UNL1        0.0700
      2 C         140.6295  144.2089  162.7850 C.3     1  UNL1        0.0193
      3 C         140.8214  143.1880  163.8671 C.3     1  UNL1        0.0287
      4 C         142.1254  142.4561  163.9852 C.3     1  UNL1        0.0955
      5 C         143.2376  142.7450  163.0210 C.3     1  UNL1        0.0287
      6 C         143.0457  143.7660  161.9389 C.3     1  UNL1        0.0193
      7 O         142.0672  143.0068  163.3758 O.3     1  UNL1       -0.3571
      8 C         141.8938  143.9299  162.3974 C.3     1  UNL1        0.1562
      9 N         141.5499  145.5187  160.7387 N.3     1  UNL1       -0.2926
     10 H         140.8571  146.1844  161.0813 H       1  UNL1        0.1236
     11 C         141.0998  145.0892  159.3738 C.3     1  UNL1        0.1152
     12 O         147.3895  141.8387  156.1141 O.2     1  UNL1       -0.2738
     13 C         145.9499  141.7539  156.5274 C.2     1  UNL1        0.2385
     14 C         145.1676  140.5008  156.2674 C.3     1  UNL1        0.1473
     15 S         143.7281  140.4160  156.6807 S.3     1  UNL1       -0.1011
     16 C         143.0711  141.5843  157.3539 C.ar    1  UNL1        0.0574
     17 C         141.6316  141.4995  157.7672 C.ar    1  UNL1        0.0102
     18 C         140.9746  142.6678  158.4405 C.ar    1  UNL1        0.0167
     19 C         141.7570  143.9209  158.7005 C.ar    1  UNL1        0.0764
     20 N         143.1964  144.0057  158.2872 N.ar    1  UNL1       -0.2330
     21 C         143.8535  142.8374  157.6140 C.ar    1  UNL1        0.1395
     22 N         145.2929  142.9222  157.2007 N.am    1  UNL1       -0.2682
     23 H         145.8064  143.7447  157.3714 H       1  UNL1        0.1563
     24 C         142.3172  141.4352  165.0673 C.3     1  UNL1        0.0604
     25 C         142.4479  141.8724  166.4962 C.3     1  UNL1        0.1335
     26 O         143.6082  142.6713  165.9811 O.3     1  UNL1       -0.3806
     27 C         142.8210  142.4766  167.8174 C.3     1  UNL1        0.1402
     28 N         141.8640  141.9597  168.8504 N.ar    1  UNL1       -0.2915
     29 C         141.7463  142.2108  170.3245 C.ar    1  UNL1        0.2611
     30 O         142.7110  143.1345  171.0074 O.2     1  UNL1       -0.2670
     31 C         140.6640  141.5383  171.1158 C.ar    1  UNL1        0.0623
     32 C         139.6993  140.6146  170.4329 C.ar    1  UNL1        0.0254
     33 C         139.8170  140.3635  168.9588 C.ar    1  UNL1        0.0972
     34 N         139.0051  139.5025  168.0261 N.ar    1  UNL1       -0.2400
     35 C         139.2457  139.3492  166.5535 C.ar    1  UNL1        0.1282
     36 C         140.3732  140.0890  165.8968 C.ar    1  UNL1        0.1588
     37 F         140.6138  139.9356  164.4242 F       1  UNL1       -0.2027
     38 C         141.2602  140.9821  166.7126 C.ar    1  UNL1        0.0500
     39 C         140.8993  141.0361  168.1676 C.ar    1  UNL1        0.0806
     40 H         144.0128  143.1627  166.7131 H       1  UNL1        0.2108
@<TRIPOS>BOND
     1    12    13    2
     2    13    14    1
     3    14    15    1
     4    15    16    1
     5    16    17   ar
     6    17    18   ar
     7    18    19   ar
     8    19    11    1
     9    11     9    1
    10     9     1    1
    11     1     2    1
    12     2     3    1
    13     3     4    1
    14     4    24    1
    15    24    25    1
    16    25    26    1
    17    25    27    1
    18    27    28    1
    19    28    29   ar
    20    29    30    2
    21    29    31   ar
    22    31    32   ar
    23    32    33   ar
    24    33    34   ar
    25    34    35   ar
    26    35    36   ar
    27    36    37    1
    28    36    38   ar
    29    38    39   ar
    30     4     5    1
    31     5     6    1
    32     4     7    1
    33     7     8    1
    34    19    20   ar
    35    20    21   ar
    36    21    22    1
    37    22    13   am
    38    21    16   ar
    39     6     1    1
    40     8     1    1
    41    38    25    1
    42    39    28   ar
    43    39    33   ar
    44     9    10    1
    45    26    40    1
    46    22    23    1
@<TRIPOS>MOLECULE
*****
 40 46 0 0 0
SMALL
GASTEIGER

@<TRIPOS>ATOM
      1 C         144.3164  140.2422  157.4684 C.3     1  UNL1        0.0700
      2 C         144.8230  141.6495  157.3546 C.3     1  UNL1        0.0193
      3 C         144.6557  142.6018  158.5014 C.3     1  UNL1        0.0287
      4 C         143.9818  142.1469  159.7620 C.3     1  UNL1        0.0955
      5 C         143.4752  140.7396  159.8757 C.3     1  UNL1        0.0287
      6 C         143.6425  139.7873  158.7289 C.3     1  UNL1        0.0193
      7 O         144.0506  141.5890  159.1603 O.3     1  UNL1       -0.3571
      8 C         144.2018  140.7279  158.1234 C.3     1  UNL1        0.1562
      9 N         144.4837  139.2899  156.3216 N.3     1  UNL1       -0.2926
     10 H         145.0822  139.7539  155.6384 H       1  UNL1        0.1236
     11 C         143.2798  138.7941  155.5768 C.3     1  UNL1        0.1152
     12 O         144.8044  131.5275  157.9483 O.2     1  UNL1       -0.2738
     13 C         143.9507  132.4902  157.1771 C.2     1  UNL1        0.2385
     14 C         142.7516  131.9933  156.4254 C.3     1  UNL1        0.1473
     15 S         141.8979  132.9559  155.6542 S.3     1  UNL1       -0.1011
     16 C         142.2434  134.4154  155.6349 C.ar    1  UNL1        0.0574
     17 C         141.3898  135.3781  154.8637 C.ar    1  UNL1        0.0102
     18 C         141.7352  136.8376  154.8444 C.ar    1  UNL1        0.0167
     19 C         142.9344  137.3345  155.5962 C.ar    1  UNL1        0.0764
     20 N         143.7880  136.3719  156.3673 N.ar    1  UNL1       -0.2330
     21 C         143.4425  134.9123  156.3866 C.ar    1  UNL1        0.1395
     22 N         144.2962  133.9498  157.1578 N.am    1  UNL1       -0.2682
     23 H         145.0832  134.2759  157.6512 H       1  UNL1        0.1563
     24 C         143.8145  143.0993  160.9087 C.3     1  UNL1        0.0604
     25 C         142.4784  143.7276  161.1730 C.3     1  UNL1        0.1335
     26 O         142.5523  144.1188  159.7268 O.3     1  UNL1       -0.3806
     27 C         141.1577  144.4378  161.1350 C.3     1  UNL1        0.1402
     28 N         140.5469  144.3542  162.5024 N.ar    1  UNL1       -0.2915
     29 C         139.2537  144.8733  163.0575 C.ar    1  UNL1        0.2611
     30 O         138.3105  145.6352  162.1743 O.2     1  UNL1       -0.2670
     31 C         138.9037  144.6306  164.4957 C.ar    1  UNL1        0.0623
     32 C         139.8469  143.8688  165.3789 C.ar    1  UNL1        0.0254
     33 C         141.1401  143.3496  164.8238 C.ar    1  UNL1        0.0972
     34 N         142.2576  142.5678  165.4643 N.ar    1  UNL1       -0.2400
     35 C         143.5079  142.1121  164.7722 C.ar    1  UNL1        0.1282
     36 C         143.7210  142.4308  163.3220 C.ar    1  UNL1        0.1588
     37 F         144.9713  141.9751  162.6299 F       1  UNL1       -0.2027
     38 C         142.6838  143.2051  162.5639 C.ar    1  UNL1        0.0500
     39 C         141.4901  143.5923  163.3856 C.ar    1  UNL1        0.0806
     40 H         141.7539  144.6134  159.4844 H       1  UNL1        0.2108
@<TRIPOS>BOND
     1    12    13    2
     2    13    14    1
     3    14    15    1
     4    15    16    1
     5    16    17   ar
     6    17    18   ar
     7    18    19   ar
     8    19    11    1
     9    11     9    1
    10     9     1    1
    11     1     2    1
    12     2     3    1
    13     3     4    1
    14     4    24    1
    15    24    25    1
    16    25    26    1
    17    25    27    1
    18    27    28    1
    19    28    29   ar
    20    29    30    2
    21    29    31   ar
    22    31    32   ar
    23    32    33   ar
    24    33    34   ar
    25    34    35   ar
    26    35    36   ar
    27    36    37    1
    28    36    38   ar
    29    38    39   ar
    30     4     5    1
    31     5     6    1
    32     4     7    1
    33     7     8    1
    34    19    20   ar
    35    20    21   ar
    36    21    22    1
    37    22    13   am
    38    21    16   ar
    39     6     1    1
    40     8     1    1
    41    38    25    1
    42    39    28   ar
    43    39    33   ar
    44     9    10    1
    45    26    40    1
    46    22    23    1
@<TRIPOS>MOLECULE
*****
 40 46 0 0 0
SMALL
GASTEIGER

@<TRIPOS>ATOM
      1 C         141.1978  139.2166  158.1338 C.3     1  UNL1        0.0700
      2 C         142.0021  139.7668  159.2741 C.3     1  UNL1        0.0193
      3 C         141.5899  139.4832  160.6882 C.3     1  UNL1        0.0287
      4 C         140.3734  138.6493  160.9620 C.3     1  UNL1        0.0955
      5 C         139.5691  138.0991  159.8217 C.3     1  UNL1        0.0287
      6 C         139.9814  138.3827  158.4076 C.3     1  UNL1        0.0193
      7 O         140.5600  138.7779  160.1704 O.3     1  UNL1       -0.3571
      8 C         140.9327  139.0343  158.8918 C.3     1  UNL1        0.1562
      9 N         141.6100  139.5002  156.7197 N.3     1  UNL1       -0.2926
     10 H         140.7717  139.4119  156.1453 H       1  UNL1        0.1236
     11 C         142.6722  138.6665  156.0666 C.3     1  UNL1        0.1152
     12 O         145.1264  131.5320  158.0231 O.2     1  UNL1       -0.2738
     13 C         144.1553  132.4196  157.3024 C.2     1  UNL1        0.2385
     14 C         143.0313  131.8165  156.5133 C.3     1  UNL1        0.1473
     15 S         142.0601  132.7040  155.7926 S.3     1  UNL1       -0.1011
     16 C         142.2132  134.1946  155.8611 C.ar    1  UNL1        0.0574
     17 C         141.2421  135.0822  155.1405 C.ar    1  UNL1        0.0102
     18 C         141.3952  136.5728  155.2090 C.ar    1  UNL1        0.0167
     19 C         142.5192  137.1758  155.9982 C.ar    1  UNL1        0.0764
     20 N         143.4903  136.2883  156.7188 N.ar    1  UNL1       -0.2330
     21 C         143.3372  134.7977  156.6503 C.ar    1  UNL1        0.1395
     22 N         144.3083  133.9102  157.3709 N.am    1  UNL1       -0.2682
     23 H         145.0461  134.3060  157.8889 H       1  UNL1        0.1563
     24 C         139.9612  138.3658  162.3761 C.3     1  UNL1        0.0604
     25 C         141.0039  138.1786  163.4381 C.3     1  UNL1        0.1335
     26 O         141.5102  137.0981  162.5291 O.3     1  UNL1       -0.3806
     27 C         142.1524  137.7656  164.3100 C.3     1  UNL1        0.1402
     28 N         142.1380  138.6299  165.5359 N.ar    1  UNL1       -0.2915
     29 C         143.0293  138.6768  166.7414 C.ar    1  UNL1        0.2611
     30 O         144.1868  137.7296  166.8557 O.2     1  UNL1       -0.2670
     31 C         142.7632  139.6709  167.8326 C.ar    1  UNL1        0.0623
     32 C         141.6057  140.6182  167.7183 C.ar    1  UNL1        0.0254
     33 C         140.7145  140.5713  166.5128 C.ar    1  UNL1        0.0972
     34 N         139.5030  141.3843  166.1362 N.ar    1  UNL1       -0.2400
     35 C         138.7025  141.2205  164.8783 C.ar    1  UNL1        0.1282
     36 C         139.0909  140.1774  163.8727 C.ar    1  UNL1        0.1588
     37 F         138.2904  140.0136  162.6148 F       1  UNL1       -0.2027
     38 C         140.2797  139.2982  164.1250 C.ar    1  UNL1        0.0500
     39 C         140.9806  139.5772  165.4215 C.ar    1  UNL1        0.0806
     40 H         142.2909  136.6812  162.9260 H       1  UNL1        0.2108
@<TRIPOS>BOND
     1    12    13    2
     2    13    14    1
     3    14    15    1
     4    15    16    1
     5    16    17   ar
     6    17    18   ar
     7    18    19   ar
     8    19    11    1
     9    11     9    1
    10     9     1    1
    11     1     2    1
    12     2     3    1
    13     3     4    1
    14     4    24    1
    15    24    25    1
    16    25    26    1
    17    25    27    1
    18    27    28    1
    19    28    29   ar
    20    29    30    2
    21    29    31   ar
    22    31    32   ar
    23    32    33   ar
    24    33    34   ar
    25    34    35   ar
    26    35    36   ar
    27    36    37    1
    28    36    38   ar
    29    38    39   ar
    30     4     5    1
    31     5     6    1
    32     4     7    1
    33     7     8    1
    34    19    20   ar
    35    20    21   ar
    36    21    22    1
    37    22    13   am
    38    21    16   ar
    39     6     1    1
    40     8     1    1
    41    38    25    1
    42    39    28   ar
    43    39    33   ar
    44     9    10    1
    45    26    40    1
    46    22    23    1
@<TRIPOS>MOLECULE
*****
 40 46 0 0 0
SMALL
GASTEIGER

@<TRIPOS>ATOM
      1 C         141.7364  144.4073  161.7812 C.3     1  UNL1        0.0700
      2 C         142.8697  143.4304  161.6752 C.3     1  UNL1        0.0193
      3 C         143.1068  142.4348  162.7718 C.3     1  UNL1        0.0287
      4 C         142.2104  142.4160  163.9745 C.3     1  UNL1        0.0955
      5 C         141.0771  143.3928  164.0805 C.3     1  UNL1        0.0287
      6 C         140.8401  144.3885  162.9839 C.3     1  UNL1        0.0193
      7 O         142.0412  142.9801  163.3991 O.3     1  UNL1       -0.3571
      8 C         141.8268  143.8803  162.4076 C.3     1  UNL1        0.1562
      9 N         141.4993  145.4029  160.6846 N.3     1  UNL1       -0.2926
     10 H         141.2863  146.2926  161.1357 H       1  UNL1        0.1236
     11 C         140.4189  145.1608  159.6727 C.3     1  UNL1        0.1152
     12 O         139.8469  149.0628  152.9497 O.2     1  UNL1       -0.2738
     13 C         140.3417  147.8788  153.7265 C.2     1  UNL1        0.2385
     14 C         141.1406  146.8116  153.0391 C.3     1  UNL1        0.1473
     15 S         141.6355  145.6275  153.8158 S.3     1  UNL1       -0.1011
     16 C         141.3313  145.5109  155.2800 C.ar    1  UNL1        0.0574
     17 C         141.8261  144.3269  156.0568 C.ar    1  UNL1        0.0102
     18 C         141.5220  144.2103  157.5210 C.ar    1  UNL1        0.0167
     19 C         140.7230  145.2776  158.2084 C.ar    1  UNL1        0.0764
     20 N         140.2282  146.4615  157.4316 N.ar    1  UNL1       -0.2330
     21 C         140.5324  146.5782  155.9674 C.ar    1  UNL1        0.1395
     22 N         140.0376  147.7621  155.1907 N.am    1  UNL1       -0.2682
     23 H         139.5132  148.4626  155.6419 H       1  UNL1        0.1563
     24 C         142.4475  141.4204  165.0711 C.3     1  UNL1        0.0604
     25 C         142.5900  141.8867  166.4896 C.3     1  UNL1        0.1335
     26 O         143.7642  142.6515  165.9545 O.3     1  UNL1       -0.3806
     27 C         142.9780  142.5129  167.7963 C.3     1  UNL1        0.1402
     28 N         142.0138  142.0377  168.8425 N.ar    1  UNL1       -0.2915
     29 C         141.9046  142.3237  170.3109 C.ar    1  UNL1        0.2611
     30 O         142.8885  143.2437  170.9709 O.2     1  UNL1       -0.2670
     31 C         140.8116  141.6899  171.1192 C.ar    1  UNL1        0.0623
     32 C         139.8277  140.7699  170.4591 C.ar    1  UNL1        0.0254
     33 C         139.9369  140.4838  168.9907 C.ar    1  UNL1        0.0972
     34 N         139.1064  139.6180  168.0791 N.ar    1  UNL1       -0.2400
     35 C         139.3403  139.4273  166.6098 C.ar    1  UNL1        0.1282
     36 C         140.4802  140.1305  165.9344 C.ar    1  UNL1        0.1588
     37 F         140.7141  139.9398  164.4651 F       1  UNL1       -0.2027
     38 C         141.3861  141.0244  166.7283 C.ar    1  UNL1        0.0500
     39 C         141.0300  141.1177  168.1824 C.ar    1  UNL1        0.0806
     40 H         144.1799  143.1513  166.6744 H       1  UNL1        0.2108
@<TRIPOS>BOND
     1    12    13    2
     2    13    14    1
     3    14    15    1
     4    15    16    1
     5    16    17   ar
     6    17    18   ar
     7    18    19   ar
     8    19    11    1
     9    11     9    1
    10     9     1    1
    11     1     2    1
    12     2     3    1
    13     3     4    1
    14     4    24    1
    15    24    25    1
    16    25    26    1
    17    25    27    1
    18    27    28    1
    19    28    29   ar
    20    29    30    2
    21    29    31   ar
    22    31    32   ar
    23    32    33   ar
    24    33    34   ar
    25    34    35   ar
    26    35    36   ar
    27    36    37    1
    28    36    38   ar
    29    38    39   ar
    30     4     5    1
    31     5     6    1
    32     4     7    1
    33     7     8    1
    34    19    20   ar
    35    20    21   ar
    36    21    22    1
    37    22    13   am
    38    21    16   ar
    39     6     1    1
    40     8     1    1
    41    38    25    1
    42    39    28   ar
    43    39    33   ar
    44     9    10    1
    45    26    40    1
    46    22    23    1
