@<TRIPOS>MOLECULE
*****
 25 27 0 0 0
SMALL
GASTEIGER

@<TRIPOS>ATOM
      1 C         138.6882  140.6118  157.9994 C.ar    1  UNL1        0.2701
      2 C         137.8783  141.0821  156.8277 C.ar    1  UNL1        0.0787
      3 C         137.9384  140.3374  155.5270 C.ar    1  UNL1        0.0136
      4 C         138.8084  139.1223  155.3980 C.ar    1  UNL1        0.0787
      5 C         139.6183  138.6520  156.5697 C.ar    1  UNL1        0.2701
      6 N         139.5582  139.3968  157.8703 N.ar    1  UNL1       -0.1494
      7 C         140.3682  138.9264  159.0420 C.3     1  UNL1        0.4092
      8 C         138.5680  142.1013  160.6007 C.1     1  UNL1       -0.0540
      9 C         138.6281  141.3566  159.3000 C.1     1  UNL1        0.0086
     10 C         138.3277  145.0803  165.8034 C.3     1  UNL1        0.0310
     11 C         138.3878  144.3356  164.5027 C.ar    1  UNL1       -0.0218
     12 C         137.6438  143.0429  164.3436 C.ar    1  UNL1       -0.0036
     13 C         137.7039  142.2981  163.0429 C.ar    1  UNL1        0.0079
     14 C         138.5079  142.8461  161.9014 C.ar    1  UNL1        0.0421
     15 C         139.2519  144.1388  162.0605 C.ar    1  UNL1        0.0079
     16 C         139.1918  144.8835  163.3612 C.ar    1  UNL1       -0.0036
     17 C         140.4883  137.4369  156.4407 C.1     1  UNL1        0.0086
     18 C         141.3584  136.2219  156.3117 C.1     1  UNL1       -0.0540
     19 C         142.2284  135.0067  156.1827 C.ar    1  UNL1        0.0421
     20 C         142.0876  134.1065  154.9912 C.ar    1  UNL1        0.0079
     21 C         142.9575  132.8914  154.8622 C.ar    1  UNL1       -0.0036
     22 C         143.9684  132.5766  155.9247 C.ar    1  UNL1       -0.0218
     23 C         144.8385  131.3615  155.7957 C.3     1  UNL1        0.0310
     24 C         144.1093  133.4768  157.1162 C.ar    1  UNL1       -0.0036
     25 C         143.2393  134.6919  157.2452 C.ar    1  UNL1        0.0079
@<TRIPOS>UNITY_ATOM_ATTR
6 1
charge 1
@<TRIPOS>BOND
     1    10    11    1
     2    11    12   ar
     3    12    13   ar
     4    13    14   ar
     5    14     8    1
     6     8     9    3
     7     9     1    1
     8     1     2   ar
     9     2     3   ar
    10     3     4   ar
    11     4     5   ar
    12     5    17    1
    13    17    18    3
    14    18    19    1
    15    19    20   ar
    16    20    21   ar
    17    21    22   ar
    18    22    23    1
    19    22    24   ar
    20    24    25   ar
    21     5     6   ar
    22     6     7    1
    23    14    15   ar
    24    15    16   ar
    25    16    11   ar
    26     6     1   ar
    27    25    19   ar
@<TRIPOS>MOLECULE
*****
 25 27 0 0 0
SMALL
GASTEIGER

@<TRIPOS>ATOM
      1 C         139.6063  138.6080  156.5532 C.ar    1  UNL1        0.2701
      2 C         138.7946  139.0780  155.3827 C.ar    1  UNL1        0.0787
      3 C         137.9230  140.2918  155.5134 C.ar    1  UNL1        0.0136
      4 C         137.8630  141.0355  156.8146 C.ar    1  UNL1        0.0787
      5 C         138.6747  140.5654  157.9852 C.ar    1  UNL1        0.2701
      6 N         139.5463  139.3517  157.8545 N.ar    1  UNL1       -0.1494
      7 C         140.3580  138.8816  159.0251 C.3     1  UNL1        0.4092
      8 C         141.3495  136.1804  156.2919 C.1     1  UNL1       -0.0540
      9 C         140.4779  137.3942  156.4225 C.1     1  UNL1        0.0086
     10 C         144.8360  131.3254  155.7691 C.3     1  UNL1        0.0310
     11 C         143.9643  132.5392  155.8998 C.ar    1  UNL1       -0.0218
     12 C         142.9726  132.8697  154.8241 C.ar    1  UNL1       -0.0036
     13 C         142.1010  134.0834  154.9548 C.ar    1  UNL1        0.0079
     14 C         142.2211  134.9667  156.1612 C.ar    1  UNL1        0.0421
     15 C         143.2129  134.6362  157.2369 C.ar    1  UNL1        0.0079
     16 C         144.0845  133.4224  157.1062 C.ar    1  UNL1       -0.0036
     17 C         138.6148  141.3091  159.2865 C.1     1  UNL1        0.0086
     18 C         138.5548  142.0528  160.5877 C.1     1  UNL1       -0.0540
     19 C         138.4948  142.7965  161.8891 C.ar    1  UNL1        0.0421
     20 C         139.2498  144.0822  162.0536 C.ar    1  UNL1        0.0079
     21 C         139.1899  144.8259  163.3548 C.ar    1  UNL1       -0.0036
     22 C         138.3750  144.2839  164.4915 C.ar    1  UNL1       -0.0218
     23 C         138.3151  145.0276  165.7929 C.3     1  UNL1        0.0310
     24 C         137.6201  142.9982  164.3271 C.ar    1  UNL1       -0.0036
     25 C         137.6800  142.2545  163.0258 C.ar    1  UNL1        0.0079
@<TRIPOS>UNITY_ATOM_ATTR
6 1
charge 1
@<TRIPOS>BOND
     1    10    11    1
     2    11    12   ar
     3    12    13   ar
     4    13    14   ar
     5    14     8    1
     6     8     9    3
     7     9     1    1
     8     1     2   ar
     9     2     3   ar
    10     3     4   ar
    11     4     5   ar
    12     5    17    1
    13    17    18    3
    14    18    19    1
    15    19    20   ar
    16    20    21   ar
    17    21    22   ar
    18    22    23    1
    19    22    24   ar
    20    24    25   ar
    21     5     6   ar
    22     6     7    1
    23    14    15   ar
    24    15    16   ar
    25    16    11   ar
    26     6     1   ar
    27    25    19   ar
@<TRIPOS>MOLECULE
*****
 25 27 0 0 0
SMALL
GASTEIGER

@<TRIPOS>ATOM
      1 C         143.4291  140.9586  161.5588 C.ar    1  UNL1        0.2701
      2 C         143.8559  142.2195  160.8676 C.ar    1  UNL1        0.0787
      3 C         143.9986  142.2451  159.3746 C.ar    1  UNL1        0.0136
      4 C         143.7146  141.0097  158.5728 C.ar    1  UNL1        0.0787
      5 C         143.2878  139.7487  159.2639 C.ar    1  UNL1        0.2701
      6 N         143.1450  139.7231  160.7569 N.ar    1  UNL1       -0.1494
      7 C         142.7182  138.4621  161.4480 C.3     1  UNL1        0.4092
      8 C         143.1436  140.9074  164.5447 C.1     1  UNL1       -0.0540
      9 C         143.2864  140.9330  163.0517 C.1     1  UNL1        0.0086
     10 C         142.5727  140.8052  170.5166 C.3     1  UNL1        0.0310
     11 C         142.7155  140.8308  169.0236 C.ar    1  UNL1       -0.0218
     12 C         142.6027  139.5583  168.2375 C.ar    1  UNL1       -0.0036
     13 C         142.7455  139.5838  166.7446 C.ar    1  UNL1        0.0079
     14 C         143.0009  140.8819  166.0377 C.ar    1  UNL1        0.0421
     15 C         143.1136  142.1544  166.8238 C.ar    1  UNL1        0.0079
     16 C         142.9709  142.1288  168.3167 C.ar    1  UNL1       -0.0036
     17 C         143.0037  138.5132  158.4621 C.1     1  UNL1        0.0086
     18 C         142.7195  137.2778  157.6603 C.1     1  UNL1       -0.0540
     19 C         142.4354  136.0422  156.8585 C.ar    1  UNL1        0.0421
     20 C         141.3959  136.0723  155.7775 C.ar    1  UNL1        0.0079
     21 C         141.1118  134.8368  154.9757 C.ar    1  UNL1       -0.0036
     22 C         141.8672  133.5714  155.2548 C.ar    1  UNL1       -0.0218
     23 C         141.5831  132.3359  154.4530 C.3     1  UNL1        0.0310
     24 C         142.9067  133.5414  156.3358 C.ar    1  UNL1       -0.0036
     25 C         143.1909  134.7768  157.1376 C.ar    1  UNL1        0.0079
@<TRIPOS>UNITY_ATOM_ATTR
6 1
charge 1
@<TRIPOS>BOND
     1    10    11    1
     2    11    12   ar
     3    12    13   ar
     4    13    14   ar
     5    14     8    1
     6     8     9    3
     7     9     1    1
     8     1     2   ar
     9     2     3   ar
    10     3     4   ar
    11     4     5   ar
    12     5    17    1
    13    17    18    3
    14    18    19    1
    15    19    20   ar
    16    20    21   ar
    17    21    22   ar
    18    22    23    1
    19    22    24   ar
    20    24    25   ar
    21     5     6   ar
    22     6     7    1
    23    14    15   ar
    24    15    16   ar
    25    16    11   ar
    26     6     1   ar
    27    25    19   ar
@<TRIPOS>MOLECULE
*****
 25 27 0 0 0
SMALL
GASTEIGER

@<TRIPOS>ATOM
      1 C         137.4971  143.7274  155.7705 C.ar    1  UNL1        0.2701
      2 C         136.4034  143.1493  154.9223 C.ar    1  UNL1        0.0787
      3 C         135.8748  141.7761  155.2135 C.ar    1  UNL1        0.0136
      4 C         136.4400  140.9809  156.3529 C.ar    1  UNL1        0.0787
      5 C         137.5337  141.5590  157.2011 C.ar    1  UNL1        0.2701
      6 N         138.0623  142.9323  156.9099 N.ar    1  UNL1       -0.1494
      7 C         139.1561  143.5104  157.7581 C.3     1  UNL1        0.4092
      8 C         138.5542  146.4740  155.1881 C.1     1  UNL1       -0.0540
      9 C         138.0256  145.1007  155.4793 C.1     1  UNL1        0.0086
     10 C         140.6684  151.9670  154.0234 C.3     1  UNL1        0.0310
     11 C         140.1399  150.5937  154.3146 C.ar    1  UNL1       -0.0218
     12 C         140.6328  149.4174  153.5252 C.ar    1  UNL1       -0.0036
     13 C         140.1043  148.0441  153.8164 C.ar    1  UNL1        0.0079
     14 C         139.0827  147.8472  154.8969 C.ar    1  UNL1        0.0421
     15 C         138.5898  149.0235  155.6863 C.ar    1  UNL1        0.0079
     16 C         139.1183  150.3968  155.3951 C.ar    1  UNL1       -0.0036
     17 C         138.0990  140.7638  158.3405 C.1     1  UNL1        0.0086
     18 C         138.6642  139.9687  159.4799 C.1     1  UNL1       -0.0540
     19 C         139.2295  139.1735  160.6193 C.ar    1  UNL1        0.0421
     20 C         140.7028  138.8998  160.6847 C.ar    1  UNL1        0.0079
     21 C         141.2681  138.1047  161.8241 C.ar    1  UNL1       -0.0036
     22 C         140.3600  137.5833  162.8981 C.ar    1  UNL1       -0.0218
     23 C         140.9253  136.7882  164.0375 C.3     1  UNL1        0.0310
     24 C         138.8867  137.8571  162.8327 C.ar    1  UNL1       -0.0036
     25 C         138.3214  138.6522  161.6933 C.ar    1  UNL1        0.0079
@<TRIPOS>UNITY_ATOM_ATTR
6 1
charge 1
@<TRIPOS>BOND
     1    10    11    1
     2    11    12   ar
     3    12    13   ar
     4    13    14   ar
     5    14     8    1
     6     8     9    3
     7     9     1    1
     8     1     2   ar
     9     2     3   ar
    10     3     4   ar
    11     4     5   ar
    12     5    17    1
    13    17    18    3
    14    18    19    1
    15    19    20   ar
    16    20    21   ar
    17    21    22   ar
    18    22    23    1
    19    22    24   ar
    20    24    25   ar
    21     5     6   ar
    22     6     7    1
    23    14    15   ar
    24    15    16   ar
    25    16    11   ar
    26     6     1   ar
    27    25    19   ar
@<TRIPOS>MOLECULE
*****
 25 27 0 0 0
SMALL
GASTEIGER

@<TRIPOS>ATOM
      1 C         143.2625  139.5604  159.1336 C.ar    1  UNL1        0.2701
      2 C         143.6547  140.8144  158.4101 C.ar    1  UNL1        0.0787
      3 C         143.9184  142.0738  159.1810 C.ar    1  UNL1        0.0136
      4 C         143.7899  142.0792  160.6755 C.ar    1  UNL1        0.0787
      5 C         143.3977  140.8251  161.3990 C.ar    1  UNL1        0.2701
      6 N         143.1340  139.5657  160.6280 N.ar    1  UNL1       -0.1494
      7 C         142.7419  138.3116  161.3516 C.3     1  UNL1        0.4092
      8 C         142.7352  137.0416  157.5916 C.1     1  UNL1       -0.0540
      9 C         142.9989  138.3010  158.3626 C.1     1  UNL1        0.0086
     10 C         141.6805  132.0040  154.5078 C.3     1  UNL1        0.0310
     11 C         141.9442  133.2634  155.2788 C.ar    1  UNL1       -0.0218
     12 C         142.9320  133.2588  156.4075 C.ar    1  UNL1       -0.0036
     13 C         143.1957  134.5182  157.1785 C.ar    1  UNL1        0.0079
     14 C         142.4715  135.7822  156.8207 C.ar    1  UNL1        0.0421
     15 C         141.4837  135.7867  155.6919 C.ar    1  UNL1        0.0079
     16 C         141.2201  134.5273  154.9210 C.ar    1  UNL1       -0.0036
     17 C         143.2692  140.8304  162.8935 C.1     1  UNL1        0.0086
     18 C         143.1407  140.8358  164.3879 C.1     1  UNL1       -0.0540
     19 C         143.0122  140.8411  165.8825 C.ar    1  UNL1        0.0421
     20 C         143.1025  142.1335  166.6384 C.ar    1  UNL1        0.0079
     21 C         142.9739  142.1388  168.1328 C.ar    1  UNL1       -0.0036
     22 C         142.7552  140.8517  168.8714 C.ar    1  UNL1       -0.0218
     23 C         142.6267  140.8570  170.3659 C.3     1  UNL1        0.0310
     24 C         142.6649  139.5593  168.1154 C.ar    1  UNL1       -0.0036
     25 C         142.7934  139.5539  166.6210 C.ar    1  UNL1        0.0079
@<TRIPOS>UNITY_ATOM_ATTR
6 1
charge 1
@<TRIPOS>BOND
     1    10    11    1
     2    11    12   ar
     3    12    13   ar
     4    13    14   ar
     5    14     8    1
     6     8     9    3
     7     9     1    1
     8     1     2   ar
     9     2     3   ar
    10     3     4   ar
    11     4     5   ar
    12     5    17    1
    13    17    18    3
    14    18    19    1
    15    19    20   ar
    16    20    21   ar
    17    21    22   ar
    18    22    23    1
    19    22    24   ar
    20    24    25   ar
    21     5     6   ar
    22     6     7    1
    23    14    15   ar
    24    15    16   ar
    25    16    11   ar
    26     6     1   ar
    27    25    19   ar
@<TRIPOS>MOLECULE
*****
 25 27 0 0 0
SMALL
GASTEIGER

@<TRIPOS>ATOM
      1 C         141.3448  144.3960  160.5096 C.ar    1  UNL1        0.2701
      2 C         140.5345  145.6390  160.2898 C.ar    1  UNL1        0.0787
      3 C         139.6639  146.1710  161.3894 C.ar    1  UNL1        0.0136
      4 C         139.6036  145.4600  162.7088 C.ar    1  UNL1        0.0787
      5 C         140.4139  144.2170  162.9286 C.ar    1  UNL1        0.2701
      6 N         141.2845  143.6851  161.8290 N.ar    1  UNL1       -0.1494
      7 C         142.0949  142.4420  162.0489 C.3     1  UNL1        0.4092
      8 C         143.0860  143.3321  158.3105 C.1     1  UNL1       -0.0540
      9 C         142.2154  143.8641  159.4101 C.1     1  UNL1        0.0086
     10 C         146.5684  141.2041  153.9122 C.3     1  UNL1        0.0310
     11 C         145.6978  141.7361  155.0118 C.ar    1  UNL1       -0.0218
     12 C         146.2110  141.7788  156.4206 C.ar    1  UNL1       -0.0036
     13 C         145.3404  142.3107  157.5201 C.ar    1  UNL1        0.0079
     14 C         143.9566  142.8001  157.2109 C.ar    1  UNL1        0.0421
     15 C         143.4434  142.7574  155.8021 C.ar    1  UNL1        0.0079
     16 C         144.3140  142.2254  154.7025 C.ar    1  UNL1       -0.0036
     17 C         140.3537  143.5060  164.2480 C.1     1  UNL1        0.0086
     18 C         140.2935  142.7950  165.5674 C.1     1  UNL1       -0.0540
     19 C         140.2333  142.0840  166.8869 C.ar    1  UNL1        0.0421
     20 C         140.6916  142.7787  168.1348 C.ar    1  UNL1        0.0079
     21 C         140.6314  142.0677  169.4542 C.ar    1  UNL1       -0.0036
     22 C         140.1129  140.6620  169.5257 C.ar    1  UNL1       -0.0218
     23 C         140.0526  139.9510  170.8451 C.3     1  UNL1        0.0310
     24 C         139.6545  139.9673  168.2777 C.ar    1  UNL1       -0.0036
     25 C         139.7148  140.6783  166.9583 C.ar    1  UNL1        0.0079
@<TRIPOS>UNITY_ATOM_ATTR
6 1
charge 1
@<TRIPOS>BOND
     1    10    11    1
     2    11    12   ar
     3    12    13   ar
     4    13    14   ar
     5    14     8    1
     6     8     9    3
     7     9     1    1
     8     1     2   ar
     9     2     3   ar
    10     3     4   ar
    11     4     5   ar
    12     5    17    1
    13    17    18    3
    14    18    19    1
    15    19    20   ar
    16    20    21   ar
    17    21    22   ar
    18    22    23    1
    19    22    24   ar
    20    24    25   ar
    21     5     6   ar
    22     6     7    1
    23    14    15   ar
    24    15    16   ar
    25    16    11   ar
    26     6     1   ar
    27    25    19   ar
@<TRIPOS>MOLECULE
*****
 25 27 0 0 0
SMALL
GASTEIGER

@<TRIPOS>ATOM
      1 C         142.2154  138.1938  158.1505 C.ar    1  UNL1        0.2701
      2 C         141.5747  139.1514  157.1900 C.ar    1  UNL1        0.0787
      3 C         141.1338  140.5050  157.6623 C.ar    1  UNL1        0.0136
      4 C         141.3335  140.9012  159.0952 C.ar    1  UNL1        0.0787
      5 C         141.9742  139.9437  160.0557 C.ar    1  UNL1        0.2701
      6 N         142.4152  138.5900  159.5833 N.ar    1  UNL1       -0.1494
      7 C         143.0559  137.6325  160.5439 C.3     1  UNL1        0.4092
      8 C         143.0973  135.4865  157.2058 C.1     1  UNL1       -0.0540
      9 C         142.6564  136.8402  157.6781 C.1     1  UNL1        0.0086
     10 C         144.8611  130.0718  155.3164 C.3     1  UNL1        0.0310
     11 C         144.4202  131.4254  155.7888 C.ar    1  UNL1       -0.0218
     12 C         144.8456  131.9244  157.1378 C.ar    1  UNL1       -0.0036
     13 C         144.4047  133.2780  157.6102 C.ar    1  UNL1        0.0079
     14 C         143.5383  134.1328  156.7334 C.ar    1  UNL1        0.0421
     15 C         143.1128  133.6339  155.3844 C.ar    1  UNL1        0.0079
     16 C         143.5538  132.2802  154.9120 C.ar    1  UNL1       -0.0036
     17 C         142.1740  140.3399  161.4886 C.1     1  UNL1        0.0086
     18 C         142.3739  140.7360  162.9214 C.1     1  UNL1       -0.0540
     19 C         142.5737  141.1322  164.3544 C.ar    1  UNL1        0.0421
     20 C         141.9193  140.3425  165.4490 C.ar    1  UNL1        0.0079
     21 C         142.1191  140.7386  166.8819 C.ar    1  UNL1       -0.0036
     22 C         142.9732  141.9243  167.2201 C.ar    1  UNL1       -0.0218
     23 C         143.1730  142.3205  168.6530 C.3     1  UNL1        0.0310
     24 C         143.6275  142.7140  166.1254 C.ar    1  UNL1       -0.0036
     25 C         143.4278  142.3179  164.6926 C.ar    1  UNL1        0.0079
@<TRIPOS>UNITY_ATOM_ATTR
6 1
charge 1
@<TRIPOS>BOND
     1    10    11    1
     2    11    12   ar
     3    12    13   ar
     4    13    14   ar
     5    14     8    1
     6     8     9    3
     7     9     1    1
     8     1     2   ar
     9     2     3   ar
    10     3     4   ar
    11     4     5   ar
    12     5    17    1
    13    17    18    3
    14    18    19    1
    15    19    20   ar
    16    20    21   ar
    17    21    22   ar
    18    22    23    1
    19    22    24   ar
    20    24    25   ar
    21     5     6   ar
    22     6     7    1
    23    14    15   ar
    24    15    16   ar
    25    16    11   ar
    26     6     1   ar
    27    25    19   ar
@<TRIPOS>MOLECULE
*****
 25 27 0 0 0
SMALL
GASTEIGER

@<TRIPOS>ATOM
      1 C         142.0739  139.9596  160.1033 C.ar    1  UNL1        0.2701
      2 C         141.4655  140.9303  159.1351 C.ar    1  UNL1        0.0787
      3 C         141.2808  140.5406  157.6984 C.ar    1  UNL1        0.0136
      4 C         141.7046  139.1802  157.2299 C.ar    1  UNL1        0.0787
      5 C         142.3131  138.2095  158.1981 C.ar    1  UNL1        0.2701
      6 N         142.4977  138.5992  159.6348 N.ar    1  UNL1       -0.1494
      7 C         143.1062  137.6283  160.6030 C.3     1  UNL1        0.4092
      8 C         142.4432  140.7390  162.9767 C.1     1  UNL1       -0.0540
      9 C         142.2586  140.3493  161.5400 C.1     1  UNL1        0.0086
     10 C         143.1817  142.2977  168.7234 C.3     1  UNL1        0.0310
     11 C         142.9971  141.9080  167.2867 C.ar    1  UNL1       -0.0218
     12 C         143.5475  142.7791  166.1966 C.ar    1  UNL1       -0.0036
     13 C         143.3629  142.3894  164.7600 C.ar    1  UNL1        0.0079
     14 C         142.6278  141.1287  164.4133 C.ar    1  UNL1        0.0421
     15 C         142.0774  140.2576  165.5034 C.ar    1  UNL1        0.0079
     16 C         142.2620  140.6473  166.9401 C.ar    1  UNL1       -0.0036
     17 C         142.7369  136.8489  157.7296 C.1     1  UNL1        0.0086
     18 C         143.1608  135.4885  157.2612 C.1     1  UNL1       -0.0540
     19 C         143.5847  134.1280  156.7927 C.ar    1  UNL1        0.0421
     20 C         144.4236  133.2569  157.6800 C.ar    1  UNL1        0.0079
     21 C         144.8474  131.8964  157.2116 C.ar    1  UNL1       -0.0036
     22 C         144.4324  131.4071  155.8558 C.ar    1  UNL1       -0.0218
     23 C         144.8562  130.0465  155.3873 C.3     1  UNL1        0.0310
     24 C         143.5934  132.2782  154.9685 C.ar    1  UNL1       -0.0036
     25 C         143.1696  133.6386  155.4369 C.ar    1  UNL1        0.0079
@<TRIPOS>UNITY_ATOM_ATTR
6 1
charge 1
@<TRIPOS>BOND
     1    10    11    1
     2    11    12   ar
     3    12    13   ar
     4    13    14   ar
     5    14     8    1
     6     8     9    3
     7     9     1    1
     8     1     2   ar
     9     2     3   ar
    10     3     4   ar
    11     4     5   ar
    12     5    17    1
    13    17    18    3
    14    18    19    1
    15    19    20   ar
    16    20    21   ar
    17    21    22   ar
    18    22    23    1
    19    22    24   ar
    20    24    25   ar
    21     5     6   ar
    22     6     7    1
    23    14    15   ar
    24    15    16   ar
    25    16    11   ar
    26     6     1   ar
    27    25    19   ar
@<TRIPOS>MOLECULE
*****
 25 27 0 0 0
SMALL
GASTEIGER

@<TRIPOS>ATOM
      1 C         140.2767  139.6720  162.4302 C.ar    1  UNL1        0.2701
      2 C         139.2168  138.7452  161.9129 C.ar    1  UNL1        0.0787
      3 C         139.2648  138.2702  160.4909 C.ar    1  UNL1        0.0136
      4 C         140.3727  138.7218  159.5863 C.ar    1  UNL1        0.0787
      5 C         141.4327  139.6485  160.1036 C.ar    1  UNL1        0.2701
      6 N         141.3847  140.1236  161.5256 N.ar    1  UNL1       -0.1494
      7 C         142.4447  141.0504  162.0429 C.3     1  UNL1        0.4092
      8 C         140.1808  140.6221  165.2742 C.1     1  UNL1       -0.0540
      9 C         140.2288  140.1470  163.8522 C.1     1  UNL1        0.0086
     10 C         139.9888  142.5224  170.9621 C.3     1  UNL1        0.0310
     11 C         140.0368  142.0473  169.5401 C.ar    1  UNL1       -0.0218
     12 C         140.5300  142.9634  168.4595 C.ar    1  UNL1       -0.0036
     13 C         140.5780  142.4883  167.0376 C.ar    1  UNL1        0.0079
     14 C         140.1328  141.0972  166.6961 C.ar    1  UNL1        0.0421
     15 C         139.6396  140.1812  167.7767 C.ar    1  UNL1        0.0079
     16 C         139.5916  140.6562  169.1987 C.ar    1  UNL1       -0.0036
     17 C         142.5407  140.1003  159.1989 C.1     1  UNL1        0.0086
     18 C         143.6486  140.5519  158.2943 C.1     1  UNL1       -0.0540
     19 C         144.7566  141.0036  157.3896 C.ar    1  UNL1        0.0421
     20 C         145.0336  140.2625  156.1153 C.ar    1  UNL1        0.0079
     21 C         146.1416  140.7141  155.2106 C.ar    1  UNL1       -0.0036
     22 C         146.9725  141.9069  155.5803 C.ar    1  UNL1       -0.0218
     23 C         148.0805  142.3586  154.6756 C.3     1  UNL1        0.0310
     24 C         146.6955  142.6481  156.8547 C.ar    1  UNL1       -0.0036
     25 C         145.5876  142.1964  157.7593 C.ar    1  UNL1        0.0079
@<TRIPOS>UNITY_ATOM_ATTR
6 1
charge 1
@<TRIPOS>BOND
     1    10    11    1
     2    11    12   ar
     3    12    13   ar
     4    13    14   ar
     5    14     8    1
     6     8     9    3
     7     9     1    1
     8     1     2   ar
     9     2     3   ar
    10     3     4   ar
    11     4     5   ar
    12     5    17    1
    13    17    18    3
    14    18    19    1
    15    19    20   ar
    16    20    21   ar
    17    21    22   ar
    18    22    23    1
    19    22    24   ar
    20    24    25   ar
    21     5     6   ar
    22     6     7    1
    23    14    15   ar
    24    15    16   ar
    25    16    11   ar
    26     6     1   ar
    27    25    19   ar
