@<TRIPOS>MOLECULE
*****
 26 29 0 0 0
SMALL
GASTEIGER

@<TRIPOS>ATOM
      1 O         144.0936  138.0884  166.9742 O.2     1  UNL1       -0.2698
      2 C         142.8911  138.7272  166.3450 C.2     1  UNL1        0.2519
      3 N         142.0830  139.7276  167.1170 N.am    1  UNL1       -0.2778
      4 C         142.4967  138.3655  164.9436 C.ar    1  UNL1        0.0880
      5 C         141.3070  137.4842  164.7031 C.ar    1  UNL1        0.0076
      6 C         140.9126  137.1226  163.3019 C.ar    1  UNL1        0.0003
      7 C         141.7079  137.6422  162.1411 C.ar    1  UNL1        0.0031
      8 C         142.8976  138.5235  162.3816 C.ar    1  UNL1        0.0376
      9 C         143.2920  138.8852  163.7828 C.ar    1  UNL1        0.1496
     10 O         144.4817  139.7665  164.0234 O.3     1  UNL1       -0.4533
     11 C         144.3497  141.2554  163.8982 C.ar    1  UNL1        0.1453
     12 C         144.1174  142.0932  165.1206 C.ar    1  UNL1        0.0375
     13 C         143.9853  143.5821  164.9954 C.ar    1  UNL1        0.0031
     14 C         144.0855  144.2333  163.6478 C.ar    1  UNL1        0.0002
     15 C         144.3177  143.3955  162.4255 C.ar    1  UNL1        0.0031
     16 C         144.4498  141.9066  162.5507 C.ar    1  UNL1        0.0375
     17 C         142.4774  140.0893  168.5183 C.3     1  UNL1        0.0926
     18 C         143.0380  141.4072  168.9641 C.3     1  UNL1        0.0383
     19 C         143.2875  141.3291  170.4411 C.3     1  UNL1        0.0704
     20 N         142.8812  139.9628  170.9082 N.3     1  UNL1       -0.2960
     21 C         142.3805  139.1966  169.7198 C.3     1  UNL1        0.0887
     22 H         142.1415  140.0413  171.6061 H       1  UNL1        0.1233
     23 C         140.8805  140.3664  166.4878 C.3     1  UNL1        0.0756
     24 C         140.6609  141.4950  165.5244 C.3     1  UNL1        0.0199
     25 C         139.1798  141.2696  165.5979 C.3     1  UNL1        0.0034
     26 C         139.3993  140.1410  166.5612 C.3     1  UNL1        0.0199
@<TRIPOS>BOND
     1     1     2    2
     2     2     4    1
     3     4     5   ar
     4     5     6   ar
     5     6     7   ar
     6     7     8   ar
     7     8     9   ar
     8     9    10    1
     9    10    11    1
    10    11    12   ar
    11    12    13   ar
    12    13    14   ar
    13    14    15   ar
    14    15    16   ar
    15     2     3   am
    16     3    23    1
    17    23    24    1
    18    24    25    1
    19    25    26    1
    20    17     3    1
    21    17    18    1
    22    18    19    1
    23    19    20    1
    24    20    21    1
    25     9     4   ar
    26    16    11   ar
    27    26    23    1
    28    21    17    1
    29    20    22    1
@<TRIPOS>MOLECULE
*****
 26 29 0 0 0
SMALL
GASTEIGER

@<TRIPOS>ATOM
      1 O         138.3463  139.1306  167.7296 O.2     1  UNL1       -0.2698
      2 C         139.5141  139.3242  166.8084 C.2     1  UNL1        0.2519
      3 N         140.7788  139.9467  167.3212 N.am    1  UNL1       -0.2778
      4 C         139.4172  138.8952  165.3743 C.ar    1  UNL1        0.0880
      5 C         140.1860  137.6995  164.8955 C.ar    1  UNL1        0.0076
      6 C         140.0891  137.2706  163.4614 C.ar    1  UNL1        0.0003
      7 C         139.2233  138.0373  162.5061 C.ar    1  UNL1        0.0031
      8 C         138.4545  139.2330  162.9849 C.ar    1  UNL1        0.0376
      9 C         138.5515  139.6619  164.4190 C.ar    1  UNL1        0.1496
     10 O         137.7827  140.8577  164.8978 O.3     1  UNL1       -0.4533
     11 C         138.2036  142.2359  164.4814 C.ar    1  UNL1        0.1453
     12 C         139.2033  142.9950  165.3027 C.ar    1  UNL1        0.0375
     13 C         139.6242  144.3732  164.8863 C.ar    1  UNL1        0.0031
     14 C         139.0454  144.9923  163.6487 C.ar    1  UNL1        0.0002
     15 C         138.0458  144.2332  162.8274 C.ar    1  UNL1        0.0031
     16 C         137.6248  142.8550  163.2438 C.ar    1  UNL1        0.0375
     17 C         140.8758  140.3756  168.7552 C.3     1  UNL1        0.0926
     18 C         140.4067  141.6847  169.3175 C.3     1  UNL1        0.0383
     19 C         140.6999  141.6890  170.7886 C.3     1  UNL1        0.0704
     20 N         141.3501  140.3825  171.1355 N.3     1  UNL1       -0.2960
     21 C         141.4588  139.5708  169.8788 C.3     1  UNL1        0.0887
     22 H         140.7823  139.8846  171.8212 H       1  UNL1        0.1233
     23 C         141.9467  140.1402  166.3998 C.3     1  UNL1        0.0756
     24 C         143.1677  139.3411  166.0528 C.3     1  UNL1        0.0199
     25 C         143.5981  140.4139  165.0969 C.3     1  UNL1        0.0034
     26 C         142.3771  141.2130  165.4439 C.3     1  UNL1        0.0199
@<TRIPOS>BOND
     1     1     2    2
     2     2     4    1
     3     4     5   ar
     4     5     6   ar
     5     6     7   ar
     6     7     8   ar
     7     8     9   ar
     8     9    10    1
     9    10    11    1
    10    11    12   ar
    11    12    13   ar
    12    13    14   ar
    13    14    15   ar
    14    15    16   ar
    15     2     3   am
    16     3    23    1
    17    23    24    1
    18    24    25    1
    19    25    26    1
    20    17     3    1
    21    17    18    1
    22    18    19    1
    23    19    20    1
    24    20    21    1
    25     9     4   ar
    26    16    11   ar
    27    26    23    1
    28    21    17    1
    29    20    22    1
@<TRIPOS>MOLECULE
*****
 26 29 0 0 0
SMALL
GASTEIGER

@<TRIPOS>ATOM
      1 O         140.3225  142.7700  165.7216 O.2     1  UNL1       -0.2698
      2 C         139.9397  141.3837  166.1477 C.2     1  UNL1        0.2519
      3 N         138.9659  140.5894  165.3286 N.am    1  UNL1       -0.2778
      4 C         140.5307  140.7916  167.3928 C.ar    1  UNL1        0.0880
      5 C         139.9253  141.0996  168.7301 C.ar    1  UNL1        0.0076
      6 C         140.5164  140.5075  169.9751 C.ar    1  UNL1        0.0003
      7 C         141.7127  139.6074  169.8828 C.ar    1  UNL1        0.0031
      8 C         142.3181  139.2994  168.5454 C.ar    1  UNL1        0.0376
      9 C         141.7271  139.8915  167.3004 C.ar    1  UNL1        0.1496
     10 O         142.3324  139.5835  165.9629 O.3     1  UNL1       -0.4533
     11 C         143.3762  140.4925  165.3849 C.ar    1  UNL1        0.1453
     12 C         143.4356  141.9306  165.8074 C.ar    1  UNL1        0.0375
     13 C         144.4794  142.8397  165.2294 C.ar    1  UNL1        0.0031
     14 C         145.4638  142.3106  164.2287 C.ar    1  UNL1        0.0002
     15 C         145.4043  140.8726  163.8062 C.ar    1  UNL1        0.0031
     16 C         144.3606  139.9636  164.3843 C.ar    1  UNL1        0.0375
     17 C         138.3749  141.1814  164.0836 C.3     1  UNL1        0.0926
     18 C         138.4748  140.6078  162.7012 C.3     1  UNL1        0.0383
     19 C         137.7419  141.5229  161.7656 C.3     1  UNL1        0.0704
     20 N         137.1889  142.6621  162.5697 N.3     1  UNL1       -0.2960
     21 C         137.5801  142.4510  164.0023 C.3     1  UNL1        0.0887
     22 H         136.1724  142.6822  162.4878 H       1  UNL1        0.1233
     23 C         138.5831  139.2030  165.7547 C.3     1  UNL1        0.0756
     24 C         137.7634  138.6244  166.8698 C.3     1  UNL1        0.0199
     25 C         138.0417  137.2424  166.3572 C.3     1  UNL1        0.0034
     26 C         138.8614  137.8210  165.2422 C.3     1  UNL1        0.0199
@<TRIPOS>BOND
     1     1     2    2
     2     2     4    1
     3     4     5   ar
     4     5     6   ar
     5     6     7   ar
     6     7     8   ar
     7     8     9   ar
     8     9    10    1
     9    10    11    1
    10    11    12   ar
    11    12    13   ar
    12    13    14   ar
    13    14    15   ar
    14    15    16   ar
    15     2     3   am
    16     3    23    1
    17    23    24    1
    18    24    25    1
    19    25    26    1
    20    17     3    1
    21    17    18    1
    22    18    19    1
    23    19    20    1
    24    20    21    1
    25     9     4   ar
    26    16    11   ar
    27    26    23    1
    28    21    17    1
    29    20    22    1
@<TRIPOS>MOLECULE
*****
 26 29 0 0 0
SMALL
GASTEIGER

@<TRIPOS>ATOM
      1 O         143.0220  140.1140  168.2160 O.2     1  UNL1       -0.2698
      2 C         142.4686  140.8533  167.0341 C.2     1  UNL1        0.2519
      3 N         141.0615  141.3719  167.0655 N.am    1  UNL1       -0.2778
      4 C         143.3223  141.0741  165.8206 C.ar    1  UNL1        0.0880
      5 C         143.9493  142.4150  165.5784 C.ar    1  UNL1        0.0076
      6 C         144.8029  142.6357  164.3650 C.ar    1  UNL1        0.0003
      7 C         145.0297  141.5154  163.3937 C.ar    1  UNL1        0.0031
      8 C         144.4028  140.1744  163.6358 C.ar    1  UNL1        0.0376
      9 C         143.5491  139.9537  164.8492 C.ar    1  UNL1        0.1496
     10 O         142.9221  138.6127  165.0914 O.3     1  UNL1       -0.4533
     11 C         141.5876  138.2887  164.4879 C.ar    1  UNL1        0.1453
     12 C         141.4718  138.0405  163.0131 C.ar    1  UNL1        0.0375
     13 C         140.1374  137.7165  162.4095 C.ar    1  UNL1        0.0031
     14 C         138.9187  137.6408  163.2809 C.ar    1  UNL1        0.0002
     15 C         139.0345  137.8890  164.7556 C.ar    1  UNL1        0.0031
     16 C         140.3690  138.2130  165.3591 C.ar    1  UNL1        0.0375
     17 C         140.2077  141.1513  168.2789 C.3     1  UNL1        0.0926
     18 C         139.2579  140.0102  168.4929 C.3     1  UNL1        0.0383
     19 C         138.6171  140.1866  169.8376 C.3     1  UNL1        0.0704
     20 N         139.1709  141.4367  170.4547 N.3     1  UNL1       -0.2960
     21 C         140.1539  142.0328  169.4913 C.3     1  UNL1        0.0887
     22 H         139.6393  141.2113  171.3323 H       1  UNL1        0.1233
     23 C         140.5080  142.1113  165.8834 C.3     1  UNL1        0.0756
     24 C         140.2243  143.5506  165.5705 C.3     1  UNL1        0.0199
     25 C         139.7254  143.1568  164.2118 C.3     1  UNL1        0.0034
     26 C         140.0092  141.7175  164.5247 C.3     1  UNL1        0.0199
@<TRIPOS>BOND
     1     1     2    2
     2     2     4    1
     3     4     5   ar
     4     5     6   ar
     5     6     7   ar
     6     7     8   ar
     7     8     9   ar
     8     9    10    1
     9    10    11    1
    10    11    12   ar
    11    12    13   ar
    12    13    14   ar
    13    14    15   ar
    14    15    16   ar
    15     2     3   am
    16     3    23    1
    17    23    24    1
    18    24    25    1
    19    25    26    1
    20    17     3    1
    21    17    18    1
    22    18    19    1
    23    19    20    1
    24    20    21    1
    25     9     4   ar
    26    16    11   ar
    27    26    23    1
    28    21    17    1
    29    20    22    1
@<TRIPOS>MOLECULE
*****
 26 29 0 0 0
SMALL
GASTEIGER

@<TRIPOS>ATOM
      1 O         138.2001  138.4725  166.6946 O.2     1  UNL1       -0.2698
      2 C         138.8645  139.6451  166.0361 C.2     1  UNL1        0.2519
      3 N         139.7847  140.5271  166.8268 N.am    1  UNL1       -0.2778
      4 C         138.6086  139.9358  164.5869 C.ar    1  UNL1        0.0880
      5 C         137.6261  141.0003  164.1976 C.ar    1  UNL1        0.0076
      6 C         137.3703  141.2910  162.7485 C.ar    1  UNL1        0.0003
      7 C         138.0968  140.5171  161.6887 C.ar    1  UNL1        0.0031
      8 C         139.0792  139.4525  162.0780 C.ar    1  UNL1        0.0376
      9 C         139.3351  139.1619  163.5271 C.ar    1  UNL1        0.1496
     10 O         140.3176  138.0973  163.9165 O.3     1  UNL1       -0.4533
     11 C         141.7509  138.4573  164.1733 C.ar    1  UNL1        0.1453
     12 C         142.3396  138.2639  165.5393 C.ar    1  UNL1        0.0375
     13 C         143.7730  138.6238  165.7961 C.ar    1  UNL1        0.0031
     14 C         144.6176  139.1772  164.6868 C.ar    1  UNL1        0.0002
     15 C         144.0289  139.3706  163.3208 C.ar    1  UNL1        0.0031
     16 C         142.5955  139.0106  163.0641 C.ar    1  UNL1        0.0375
     17 C         140.0407  140.2365  168.2759 C.3     1  UNL1        0.0926
     18 C         141.3542  139.8291  168.8748 C.3     1  UNL1        0.0383
     19 C         141.1534  139.6431  170.3496 C.3     1  UNL1        0.0704
     20 N         139.7157  139.9355  170.6623 N.3     1  UNL1       -0.2960
     21 C         139.0281  140.3022  169.3806 C.3     1  UNL1        0.0887
     22 H         139.6557  140.7114  171.3216 H       1  UNL1        0.1233
     23 C         140.4491  141.6998  166.1683 C.3     1  UNL1        0.0756
     24 C         141.7095  141.9000  165.3801 C.3     1  UNL1        0.0199
     25 C         141.3885  143.3582  165.2371 C.3     1  UNL1        0.0034
     26 C         140.1281  143.1581  166.0253 C.3     1  UNL1        0.0199
@<TRIPOS>BOND
     1     1     2    2
     2     2     4    1
     3     4     5   ar
     4     5     6   ar
     5     6     7   ar
     6     7     8   ar
     7     8     9   ar
     8     9    10    1
     9    10    11    1
    10    11    12   ar
    11    12    13   ar
    12    13    14   ar
    13    14    15   ar
    14    15    16   ar
    15     2     3   am
    16     3    23    1
    17    23    24    1
    18    24    25    1
    19    25    26    1
    20    17     3    1
    21    17    18    1
    22    18    19    1
    23    19    20    1
    24    20    21    1
    25     9     4   ar
    26    16    11   ar
    27    26    23    1
    28    21    17    1
    29    20    22    1
@<TRIPOS>MOLECULE
*****
 26 29 0 0 0
SMALL
GASTEIGER

@<TRIPOS>ATOM
      1 O         141.3964  140.4818  162.9133 O.2     1  UNL1       -0.2698
      2 C         141.4429  140.1344  164.3717 C.2     1  UNL1        0.2519
      3 N         142.6592  140.4676  165.1838 N.am    1  UNL1       -0.2778
      4 C         140.2728  139.4537  165.0182 C.ar    1  UNL1        0.0880
      5 C         140.0248  137.9948  164.7735 C.ar    1  UNL1        0.0076
      6 C         138.8548  137.3142  165.4199 C.ar    1  UNL1        0.0003
      7 C         137.9329  138.0926  166.3112 C.ar    1  UNL1        0.0031
      8 C         138.1810  139.5515  166.5560 C.ar    1  UNL1        0.0376
      9 C         139.3510  140.2321  165.9095 C.ar    1  UNL1        0.1496
     10 O         139.5991  141.6911  166.1543 O.3     1  UNL1       -0.4533
     11 C         139.2723  142.6963  165.0899 C.ar    1  UNL1        0.1453
     12 C         137.9735  142.6045  164.3451 C.ar    1  UNL1        0.0375
     13 C         137.6467  143.6097  163.2807 C.ar    1  UNL1        0.0031
     14 C         138.6188  144.7067  162.9613 C.ar    1  UNL1        0.0002
     15 C         139.9175  144.7984  163.7062 C.ar    1  UNL1        0.0031
     16 C         140.2443  143.7932  164.7705 C.ar    1  UNL1        0.0375
     17 C         143.8292  141.1482  164.5373 C.3     1  UNL1        0.0926
     18 C         143.9244  142.6065  164.1993 C.3     1  UNL1        0.0383
     19 C         145.2634  142.8496  163.5685 C.3     1  UNL1        0.0704
     20 N         145.9958  141.5415  163.5167 N.3     1  UNL1       -0.2960
     21 C         145.1094  140.4900  164.1155 C.3     1  UNL1        0.0887
     22 H         146.8624  141.6087  164.0504 H       1  UNL1        0.1233
     23 C         142.7056  140.1201  166.6423 C.3     1  UNL1        0.0756
     24 C         142.4986  140.8778  167.9203 C.3     1  UNL1        0.0199
     25 C         142.7712  139.6287  168.7049 C.3     1  UNL1        0.0034
     26 C         142.9782  138.8711  167.4269 C.3     1  UNL1        0.0199
@<TRIPOS>BOND
     1     1     2    2
     2     2     4    1
     3     4     5   ar
     4     5     6   ar
     5     6     7   ar
     6     7     8   ar
     7     8     9   ar
     8     9    10    1
     9    10    11    1
    10    11    12   ar
    11    12    13   ar
    12    13    14   ar
    13    14    15   ar
    14    15    16   ar
    15     2     3   am
    16     3    23    1
    17    23    24    1
    18    24    25    1
    19    25    26    1
    20    17     3    1
    21    17    18    1
    22    18    19    1
    23    19    20    1
    24    20    21    1
    25     9     4   ar
    26    16    11   ar
    27    26    23    1
    28    21    17    1
    29    20    22    1
@<TRIPOS>MOLECULE
*****
 26 29 0 0 0
SMALL
GASTEIGER

@<TRIPOS>ATOM
      1 O         140.9055  141.6129  160.8768 O.2     1  UNL1       -0.2698
      2 C         141.1003  141.7058  162.3612 C.2     1  UNL1        0.2519
      3 N         142.0811  140.8015  163.0470 N.am    1  UNL1       -0.2778
      4 C         140.3143  142.7031  163.1598 C.ar    1  UNL1        0.0880
      5 C         140.9548  143.9879  163.5945 C.ar    1  UNL1        0.0076
      6 C         140.1688  144.9850  164.3931 C.ar    1  UNL1        0.0003
      7 C         138.7423  144.6974  164.7570 C.ar    1  UNL1        0.0031
      8 C         138.1018  143.4126  164.3223 C.ar    1  UNL1        0.0376
      9 C         138.8878  142.4154  163.5237 C.ar    1  UNL1        0.1496
     10 O         138.2473  141.1305  163.0890 O.3     1  UNL1       -0.4533
     11 C         138.4199  139.8898  163.9141 C.ar    1  UNL1        0.1453
     12 C         138.0527  139.8992  165.3685 C.ar    1  UNL1        0.0375
     13 C         138.2252  138.6585  166.1936 C.ar    1  UNL1        0.0031
     14 C         138.7649  137.4083  165.5644 C.ar    1  UNL1        0.0002
     15 C         139.1320  137.3990  164.1101 C.ar    1  UNL1        0.0031
     16 C         138.9595  138.6397  163.2849 C.ar    1  UNL1        0.0375
     17 C         142.8671  139.8043  162.2485 C.3     1  UNL1        0.0926
     18 C         142.6080  138.3284  162.1805 C.3     1  UNL1        0.0383
     19 C         143.6309  137.7198  161.2677 C.3     1  UNL1        0.0704
     20 N         144.5222  138.8196  160.7715 N.3     1  UNL1       -0.2960
     21 C         144.0501  140.1078  161.3776 C.3     1  UNL1        0.0887
     22 H         144.4693  138.8757  159.7544 H       1  UNL1        0.1233
     23 C         142.2758  140.8945  164.5315 C.3     1  UNL1        0.0756
     24 C         141.6638  140.2240  165.7256 C.3     1  UNL1        0.0199
     25 C         142.5513  141.0260  166.6307 C.3     1  UNL1        0.0034
     26 C         143.1633  141.6964  165.4366 C.3     1  UNL1        0.0199
@<TRIPOS>BOND
     1     1     2    2
     2     2     4    1
     3     4     5   ar
     4     5     6   ar
     5     6     7   ar
     6     7     8   ar
     7     8     9   ar
     8     9    10    1
     9    10    11    1
    10    11    12   ar
    11    12    13   ar
    12    13    14   ar
    13    14    15   ar
    14    15    16   ar
    15     2     3   am
    16     3    23    1
    17    23    24    1
    18    24    25    1
    19    25    26    1
    20    17     3    1
    21    17    18    1
    22    18    19    1
    23    19    20    1
    24    20    21    1
    25     9     4   ar
    26    16    11   ar
    27    26    23    1
    28    21    17    1
    29    20    22    1
@<TRIPOS>MOLECULE
*****
 26 29 0 0 0
SMALL
GASTEIGER

@<TRIPOS>ATOM
      1 O         138.8523  141.5432  161.8779 O.2     1  UNL1       -0.2698
      2 C         139.4549  141.4407  163.2476 C.2     1  UNL1        0.2519
      3 N         140.2171  142.5988  163.8203 N.am    1  UNL1       -0.2778
      4 C         139.2954  140.1801  164.0448 C.ar    1  UNL1        0.0880
      5 C         138.2391  140.0926  165.1063 C.ar    1  UNL1        0.0076
      6 C         138.0796  138.8320  165.9034 C.ar    1  UNL1        0.0003
      7 C         138.9763  137.6590  165.6391 C.ar    1  UNL1        0.0031
      8 C         140.0326  137.7465  164.5777 C.ar    1  UNL1        0.0376
      9 C         140.1921  139.0070  163.7806 C.ar    1  UNL1        0.1496
     10 O         141.2484  139.0946  162.7191 O.3     1  UNL1       -0.4533
     11 C         142.6094  139.6268  163.0575 C.ar    1  UNL1        0.1453
     12 C         143.4462  138.9403  164.0961 C.ar    1  UNL1        0.0375
     13 C         144.8072  139.4725  164.4345 C.ar    1  UNL1        0.0031
     14 C         145.3313  140.6911  163.7343 C.ar    1  UNL1        0.0002
     15 C         144.4945  141.3776  162.6958 C.ar    1  UNL1        0.0031
     16 C         143.1335  140.8454  162.3574 C.ar    1  UNL1        0.0375
     17 C         140.3767  143.8593  163.0231 C.3     1  UNL1        0.0926
     18 C         139.3867  144.9834  162.9435 C.3     1  UNL1        0.0383
     19 C         139.9524  146.0360  162.0368 C.3     1  UNL1        0.0704
     20 N         141.2921  145.5624  161.5560 N.3     1  UNL1       -0.2960
     21 C         141.5542  144.2172  162.1656 C.3     1  UNL1        0.0887
     22 H         142.0159  146.2204  161.8450 H       1  UNL1        0.1233
     23 C         140.8197  142.4963  165.1901 C.3     1  UNL1        0.0756
     24 C         140.3469  142.7949  166.5820 C.3     1  UNL1        0.0199
     25 C         141.6720  142.3513  167.1273 C.3     1  UNL1        0.0034
     26 C         142.1448  142.0527  165.7354 C.3     1  UNL1        0.0199
@<TRIPOS>BOND
     1     1     2    2
     2     2     4    1
     3     4     5   ar
     4     5     6   ar
     5     6     7   ar
     6     7     8   ar
     7     8     9   ar
     8     9    10    1
     9    10    11    1
    10    11    12   ar
    11    12    13   ar
    12    13    14   ar
    13    14    15   ar
    14    15    16   ar
    15     2     3   am
    16     3    23    1
    17    23    24    1
    18    24    25    1
    19    25    26    1
    20    17     3    1
    21    17    18    1
    22    18    19    1
    23    19    20    1
    24    20    21    1
    25     9     4   ar
    26    16    11   ar
    27    26    23    1
    28    21    17    1
    29    20    22    1
@<TRIPOS>MOLECULE
*****
 26 29 0 0 0
SMALL
GASTEIGER

@<TRIPOS>ATOM
      1 O         139.5653  142.8063  163.8256 O.2     1  UNL1       -0.2698
      2 C         140.4279  141.6238  164.1535 C.2     1  UNL1        0.2519
      3 N         141.9202  141.7311  164.0453 N.am    1  UNL1       -0.2778
      4 C         139.7984  140.3340  164.5896 C.ar    1  UNL1        0.0880
      5 C         139.5767  139.2336  163.5948 C.ar    1  UNL1        0.0076
      6 C         138.9472  137.9438  164.0310 C.ar    1  UNL1        0.0003
      7 C         138.5393  137.7546  165.4620 C.ar    1  UNL1        0.0031
      8 C         138.7610  138.8550  166.4568 C.ar    1  UNL1        0.0376
      9 C         139.3905  140.1448  166.0207 C.ar    1  UNL1        0.1496
     10 O         139.6123  141.2453  167.0156 O.3     1  UNL1       -0.4533
     11 C         140.8177  141.2181  167.9078 C.ar    1  UNL1        0.1453
     12 C         141.7733  142.3743  167.9129 C.ar    1  UNL1        0.0375
     13 C         142.9788  142.3471  168.8052 C.ar    1  UNL1        0.0031
     14 C         143.2286  141.1636  169.6924 C.ar    1  UNL1        0.0002
     15 C         142.2730  140.0074  169.6872 C.ar    1  UNL1        0.0031
     16 C         141.0676  140.0347  168.7950 C.ar    1  UNL1        0.0375
     17 C         142.5497  143.0208  163.6092 C.3     1  UNL1        0.0926
     18 C         143.1956  144.0344  164.5066 C.3     1  UNL1        0.0383
     19 C         143.6890  145.1634  163.6512 C.3     1  UNL1        0.0704
     20 N         143.3481  144.8476  162.2249 N.3     1  UNL1       -0.2960
     21 C         142.6440  143.5234  162.1990 C.3     1  UNL1        0.0887
     22 H         144.2012  144.7970  161.6681 H       1  UNL1        0.1233
     23 C         142.7829  140.5485  164.3732 C.3     1  UNL1        0.0756
     24 C         143.4708  139.4829  163.5726 C.3     1  UNL1        0.0199
     25 C         144.0028  138.8763  164.8371 C.3     1  UNL1        0.0034
     26 C         143.3149  139.9419  165.6377 C.3     1  UNL1        0.0199
@<TRIPOS>BOND
     1     1     2    2
     2     2     4    1
     3     4     5   ar
     4     5     6   ar
     5     6     7   ar
     6     7     8   ar
     7     8     9   ar
     8     9    10    1
     9    10    11    1
    10    11    12   ar
    11    12    13   ar
    12    13    14   ar
    13    14    15   ar
    14    15    16   ar
    15     2     3   am
    16     3    23    1
    17    23    24    1
    18    24    25    1
    19    25    26    1
    20    17     3    1
    21    17    18    1
    22    18    19    1
    23    19    20    1
    24    20    21    1
    25     9     4   ar
    26    16    11   ar
    27    26    23    1
    28    21    17    1
    29    20    22    1
