@<TRIPOS>MOLECULE
*****
 19 20 0 0 0
SMALL
GASTEIGER

@<TRIPOS>ATOM
      1 C         140.5247  140.4492  167.2365 C.ar    1  UNL1        0.0511
      2 C         141.9277  140.0614  166.8744 C.ar    1  UNL1        0.0163
      3 C         142.8300  139.4581  167.9097 C.ar    1  UNL1        0.0253
      4 C         142.3294  139.2425  169.3071 C.ar    1  UNL1        0.1365
      5 C         140.9264  139.6303  169.6692 C.ar    1  UNL1        0.1541
      6 O         140.4256  139.4147  171.0667 O.3     1  UNL1       -0.5039
      7 C         140.0240  140.2336  168.6340 C.ar    1  UNL1        0.0527
      8 H         140.9893  139.0379  171.7134 H       1  UNL1        0.2923
      9 C         138.5640  140.2139  165.5484 C.3     1  UNL1        0.1122
     10 N         139.6224  141.0525  166.2013 N.pl3   1  UNL1       -0.3040
     11 C         139.7785  142.4945  165.8189 C.3     1  UNL1        0.1122
     12 N         143.2317  138.6392  170.3424 N.2     1  UNL1       -0.1435
     13 N         143.6463  137.2021  170.2302 N.2     1  UNL1       -0.1284
     14 C         144.5486  136.5987  171.2655 C.ar    1  UNL1        0.1838
     15 C         144.4946  135.1251  171.5403 C.ar    1  UNL1        0.0406
     16 C         145.3970  134.5217  172.5756 C.ar    1  UNL1        0.0048
     17 C         146.3532  135.3921  173.3360 C.ar    1  UNL1        0.0208
     18 C         146.4071  136.8657  173.0611 C.ar    1  UNL1        0.1006
     19 N         145.5048  137.4690  172.0259 N.ar    1  UNL1       -0.2236
@<TRIPOS>BOND
     1     9    10    1
     2    10    11    1
     3    10     1    1
     4     1     2   ar
     5     2     3   ar
     6     3     4   ar
     7     4    12    1
     8    12    13    2
     9    13    14    1
    10    14    15   ar
    11    15    16   ar
    12    16    17   ar
    13    17    18   ar
    14    18    19   ar
    15     4     5   ar
    16     5     6    1
    17     5     7   ar
    18     7     1   ar
    19    19    14   ar
    20     6     8    1
@<TRIPOS>MOLECULE
*****
 19 20 0 0 0
SMALL
GASTEIGER

@<TRIPOS>ATOM
      1 C         140.4095  141.9056  167.3438 C.ar    1  UNL1        0.0511
      2 C         140.5632  142.3524  168.7674 C.ar    1  UNL1        0.0163
      3 C         139.9079  141.5771  169.8717 C.ar    1  UNL1        0.0253
      4 C         139.0988  140.3551  169.5525 C.ar    1  UNL1        0.1365
      5 C         138.9451  139.9083  168.1289 C.ar    1  UNL1        0.1541
      6 O         138.1359  138.6862  167.8095 O.3     1  UNL1       -0.5039
      7 C         139.6004  140.6835  167.0245 C.ar    1  UNL1        0.0527
      8 H         137.7266  138.2019  168.4993 H       1  UNL1        0.2923
      9 C         140.2489  143.6056  165.3858 C.3     1  UNL1        0.1122
     10 N         141.0648  142.6808  166.2395 N.pl3   1  UNL1       -0.3040
     11 C         142.5361  142.5312  165.9889 C.3     1  UNL1        0.1122
     12 N         138.4434  139.5799  170.6568 N.2     1  UNL1       -0.1435
     13 N         137.1188  138.9159  170.4233 N.2     1  UNL1       -0.1284
     14 C         136.4635  138.1407  171.5277 C.ar    1  UNL1        0.1838
     15 C         135.2045  138.6552  172.1604 C.ar    1  UNL1        0.0406
     16 C         134.5492  137.8800  173.2648 C.ar    1  UNL1        0.0048
     17 C         135.1528  136.5902  173.7363 C.ar    1  UNL1        0.0208
     18 C         136.4117  136.0758  173.1035 C.ar    1  UNL1        0.1006
     19 N         137.0670  136.8510  171.9992 N.ar    1  UNL1       -0.2236
@<TRIPOS>BOND
     1     9    10    1
     2    10    11    1
     3    10     1    1
     4     1     2   ar
     5     2     3   ar
     6     3     4   ar
     7     4    12    1
     8    12    13    2
     9    13    14    1
    10    14    15   ar
    11    15    16   ar
    12    16    17   ar
    13    17    18   ar
    14    18    19   ar
    15     4     5   ar
    16     5     6    1
    17     5     7   ar
    18     7     1   ar
    19    19    14   ar
    20     6     8    1
@<TRIPOS>MOLECULE
*****
 19 20 0 0 0
SMALL
GASTEIGER

@<TRIPOS>ATOM
      1 C         140.5251  141.8224  167.4773 C.ar    1  UNL1        0.0511
      2 C         139.7849  140.5533  167.1753 C.ar    1  UNL1        0.0163
      3 C         139.0774  139.8178  168.2747 C.ar    1  UNL1        0.0253
      4 C         139.1101  140.3516  169.6761 C.ar    1  UNL1        0.1365
      5 C         139.8503  141.6208  169.9781 C.ar    1  UNL1        0.1541
      6 O         139.8830  142.1546  171.3796 O.3     1  UNL1       -0.5039
      7 C         140.5577  142.3562  168.8787 C.ar    1  UNL1        0.0527
      8 H         139.4410  141.6953  172.0663 H       1  UNL1        0.2923
      9 C         142.7190  142.4281  166.2244 C.3     1  UNL1        0.1122
     10 N         141.2325  142.5579  166.3779 N.pl3   1  UNL1       -0.3040
     11 C         140.4536  143.4230  165.4321 C.3     1  UNL1        0.1122
     12 N         138.4026  139.6162  170.7754 N.2     1  UNL1       -0.1435
     13 N         137.2069  138.7669  170.4611 N.2     1  UNL1       -0.1284
     14 C         136.4994  138.0314  171.5605 C.ar    1  UNL1        0.1838
     15 C         135.2727  138.6225  172.1898 C.ar    1  UNL1        0.0406
     16 C         134.5652  137.8871  173.2892 C.ar    1  UNL1        0.0048
     17 C         135.0845  136.5606  173.7593 C.ar    1  UNL1        0.0208
     18 C         136.3111  135.9696  173.1300 C.ar    1  UNL1        0.1006
     19 N         137.0186  136.7050  172.0306 N.ar    1  UNL1       -0.2236
@<TRIPOS>BOND
     1     9    10    1
     2    10    11    1
     3    10     1    1
     4     1     2   ar
     5     2     3   ar
     6     3     4   ar
     7     4    12    1
     8    12    13    2
     9    13    14    1
    10    14    15   ar
    11    15    16   ar
    12    16    17   ar
    13    17    18   ar
    14    18    19   ar
    15     4     5   ar
    16     5     6    1
    17     5     7   ar
    18     7     1   ar
    19    19    14   ar
    20     6     8    1
@<TRIPOS>MOLECULE
*****
 19 20 0 0 0
SMALL
GASTEIGER

@<TRIPOS>ATOM
      1 C         143.6277  142.9296  160.5085 C.ar    1  UNL1        0.0511
      2 C         142.4060  143.1108  161.3596 C.ar    1  UNL1        0.0163
      3 C         142.4800  142.8719  162.8386 C.ar    1  UNL1        0.0253
      4 C         143.7758  142.4518  163.4665 C.ar    1  UNL1        0.1365
      5 C         144.9976  142.2706  162.6154 C.ar    1  UNL1        0.1541
      6 O         146.2935  141.8505  163.2433 O.3     1  UNL1       -0.5039
      7 C         144.9236  142.5095  161.1364 C.ar    1  UNL1        0.0527
      8 H         146.3398  141.7012  164.1671 H       1  UNL1        0.2923
      9 C         142.4151  143.9567  158.4532 C.3     1  UNL1        0.1122
     10 N         143.5537  143.1685  159.0295 N.pl3   1  UNL1       -0.3040
     11 C         144.6182  142.6192  158.1268 C.3     1  UNL1        0.1122
     12 N         143.8499  142.2129  164.9455 N.2     1  UNL1       -0.1435
     13 N         142.7495  141.4676  165.6408 N.2     1  UNL1       -0.1284
     14 C         142.8235  141.2287  167.1198 C.ar    1  UNL1        0.1838
     15 C         143.3097  142.3160  168.0318 C.ar    1  UNL1        0.0406
     16 C         143.3838  142.0771  169.5108 C.ar    1  UNL1        0.0048
     17 C         142.9716  140.7509  170.0778 C.ar    1  UNL1        0.0208
     18 C         142.4854  139.6637  169.1659 C.ar    1  UNL1        0.1006
     19 N         142.4114  139.9026  167.6869 N.ar    1  UNL1       -0.2236
@<TRIPOS>BOND
     1     9    10    1
     2    10    11    1
     3    10     1    1
     4     1     2   ar
     5     2     3   ar
     6     3     4   ar
     7     4    12    1
     8    12    13    2
     9    13    14    1
    10    14    15   ar
    11    15    16   ar
    12    16    17   ar
    13    17    18   ar
    14    18    19   ar
    15     4     5   ar
    16     5     6    1
    17     5     7   ar
    18     7     1   ar
    19    19    14   ar
    20     6     8    1
@<TRIPOS>MOLECULE
*****
 19 20 0 0 0
SMALL
GASTEIGER

@<TRIPOS>ATOM
      1 C         139.1422  139.9888  160.5365 C.ar    1  UNL1        0.0511
      2 C         140.3869  139.8919  161.3679 C.ar    1  UNL1        0.0163
      3 C         140.3541  140.2824  162.8158 C.ar    1  UNL1        0.0253
      4 C         139.0765  140.7699  163.4323 C.ar    1  UNL1        0.1365
      5 C         137.8318  140.8668  162.6009 C.ar    1  UNL1        0.1541
      6 O         136.5541  141.3543  163.2174 O.3     1  UNL1       -0.5039
      7 C         137.8646  140.4763  161.1530 C.ar    1  UNL1        0.0527
      8 H         136.5335  141.5982  164.1219 H       1  UNL1        0.2923
      9 C         139.9581  138.3950  158.6540 C.3     1  UNL1        0.1122
     10 N         139.1751  139.5983  159.0886 N.pl3   1  UNL1       -0.3040
     11 C         138.4250  140.4110  158.0754 C.3     1  UNL1        0.1122
     12 N         139.0436  141.1604  164.8802 N.2     1  UNL1       -0.1435
     13 N         139.9181  140.4483  165.8691 N.2     1  UNL1       -0.1284
     14 C         139.8853  140.8388  167.3170 C.ar    1  UNL1        0.1838
     15 C         140.4637  142.1525  167.7528 C.ar    1  UNL1        0.0406
     16 C         140.4308  142.5430  169.2007 C.ar    1  UNL1        0.0048
     17 C         139.8195  141.6199  170.2128 C.ar    1  UNL1        0.0208
     18 C         139.2412  140.3063  169.7770 C.ar    1  UNL1        0.1006
     19 N         139.2740  139.9158  168.3291 N.ar    1  UNL1       -0.2236
@<TRIPOS>BOND
     1     9    10    1
     2    10    11    1
     3    10     1    1
     4     1     2   ar
     5     2     3   ar
     6     3     4   ar
     7     4    12    1
     8    12    13    2
     9    13    14    1
    10    14    15   ar
    11    15    16   ar
    12    16    17   ar
    13    17    18   ar
    14    18    19   ar
    15     4     5   ar
    16     5     6    1
    17     5     7   ar
    18     7     1   ar
    19    19    14   ar
    20     6     8    1
@<TRIPOS>MOLECULE
*****
 19 20 0 0 0
SMALL
GASTEIGER

@<TRIPOS>ATOM
      1 C         134.4020  140.5350  154.5332 C.ar    1  UNL1        0.0511
      2 C         133.2283  141.4689  154.5255 C.ar    1  UNL1        0.0163
      3 C         132.1233  141.2929  155.5246 C.ar    1  UNL1        0.0253
      4 C         132.1921  140.1831  156.5313 C.ar    1  UNL1        0.1365
      5 C         133.3659  139.2492  156.5389 C.ar    1  UNL1        0.1541
      6 O         133.4347  138.1393  157.5456 O.3     1  UNL1       -0.5039
      7 C         134.4708  139.4252  155.5399 C.ar    1  UNL1        0.0527
      8 H         132.7445  138.0294  158.1697 H       1  UNL1        0.2923
      9 C         135.2619  141.4860  152.2735 C.3     1  UNL1        0.1122
     10 N         135.5070  140.7110  153.5341 N.pl3   1  UNL1       -0.3040
     11 C         136.8570  140.1119  153.7957 C.3     1  UNL1        0.1122
     12 N         131.0872  140.0071  157.5303 N.2     1  UNL1       -0.1435
     13 N         130.4872  138.6507  157.7540 N.2     1  UNL1       -0.1284
     14 C         129.3823  138.4747  158.7530 C.ar    1  UNL1        0.1838
     15 C         128.8036  137.1128  158.9992 C.ar    1  UNL1        0.0406
     16 C         127.6986  136.9369  159.9982 C.ar    1  UNL1        0.0048
     17 C         127.1724  138.1228  160.7511 C.ar    1  UNL1        0.0208
     18 C         127.7511  139.4845  160.5050 C.ar    1  UNL1        0.1006
     19 N         128.8561  139.6605  159.5059 N.ar    1  UNL1       -0.2236
@<TRIPOS>BOND
     1     9    10    1
     2    10    11    1
     3    10     1    1
     4     1     2   ar
     5     2     3   ar
     6     3     4   ar
     7     4    12    1
     8    12    13    2
     9    13    14    1
    10    14    15   ar
    11    15    16   ar
    12    16    17   ar
    13    17    18   ar
    14    18    19   ar
    15     4     5   ar
    16     5     6    1
    17     5     7   ar
    18     7     1   ar
    19    19    14   ar
    20     6     8    1
@<TRIPOS>MOLECULE
*****
 19 20 0 0 0
SMALL
GASTEIGER

@<TRIPOS>ATOM
      1 C         140.7112  145.9953  156.3842 C.ar    1  UNL1        0.0511
      2 C         141.9599  145.1761  156.2445 C.ar    1  UNL1        0.0163
      3 C         142.5297  144.4680  157.4378 C.ar    1  UNL1        0.0253
      4 C         141.8507  144.5789  158.7707 C.ar    1  UNL1        0.1365
      5 C         140.6020  145.3981  158.9103 C.ar    1  UNL1        0.1541
      6 O         139.9229  145.5091  160.2432 O.3     1  UNL1       -0.5039
      7 C         140.0322  146.1063  157.7170 C.ar    1  UNL1        0.0527
      8 H         140.2788  145.0668  160.9886 H       1  UNL1        0.2923
      9 C         140.8263  146.6012  153.8604 C.3     1  UNL1        0.1122
     10 N         140.1414  146.7035  155.1909 N.pl3   1  UNL1       -0.3040
     11 C         138.8868  147.5139  155.3282 C.3     1  UNL1        0.1122
     12 N         142.4205  143.8708  159.9639 N.2     1  UNL1       -0.1435
     13 N         142.6043  144.6086  161.2568 N.2     1  UNL1       -0.1284
     14 C         143.1741  143.9004  162.4501 C.ar    1  UNL1        0.1838
     15 C         143.6144  144.6867  163.6493 C.ar    1  UNL1        0.0406
     16 C         144.1842  143.9785  164.8426 C.ar    1  UNL1        0.0048
     17 C         144.3136  142.4841  164.8366 C.ar    1  UNL1        0.0208
     18 C         143.8734  141.6979  163.6374 C.ar    1  UNL1        0.1006
     19 N         143.3036  142.4061  162.4442 N.ar    1  UNL1       -0.2236
@<TRIPOS>BOND
     1     9    10    1
     2    10    11    1
     3    10     1    1
     4     1     2   ar
     5     2     3   ar
     6     3     4   ar
     7     4    12    1
     8    12    13    2
     9    13    14    1
    10    14    15   ar
    11    15    16   ar
    12    16    17   ar
    13    17    18   ar
    14    18    19   ar
    15     4     5   ar
    16     5     6    1
    17     5     7   ar
    18     7     1   ar
    19    19    14   ar
    20     6     8    1
@<TRIPOS>MOLECULE
*****
 19 20 0 0 0
SMALL
GASTEIGER

@<TRIPOS>ATOM
      1 C         138.6039  139.2389  164.2162 C.ar    1  UNL1        0.0511
      2 C         138.6091  138.0623  163.2859 C.ar    1  UNL1        0.0163
      3 C         138.2230  138.2417  161.8475 C.ar    1  UNL1        0.0253
      4 C         137.8317  139.5978  161.3395 C.ar    1  UNL1        0.1365
      5 C         137.8265  140.7744  162.2699 C.ar    1  UNL1        0.1541
      6 O         137.4353  142.1305  161.7619 O.3     1  UNL1       -0.5039
      7 C         138.2126  140.5949  163.7082 C.ar    1  UNL1        0.0527
      8 H         137.1941  142.2426  160.8634 H       1  UNL1        0.2923
      9 C         137.9753  138.5787  166.6490 C.3     1  UNL1        0.1122
     10 N         138.9900  139.0595  165.6545 N.pl3   1  UNL1       -0.3040
     11 C         140.3907  139.3610  166.0983 C.3     1  UNL1        0.1122
     12 N         137.4456  139.7772  159.9012 N.2     1  UNL1       -0.1435
     13 N         138.1475  140.8002  159.0583 N.2     1  UNL1       -0.1284
     14 C         137.7615  140.9796  157.6200 C.ar    1  UNL1        0.1838
     15 C         138.7200  141.6204  156.6604 C.ar    1  UNL1        0.0406
     16 C         138.3340  141.7998  155.2221 C.ar    1  UNL1        0.0048
     17 C         136.9893  141.3385  154.7433 C.ar    1  UNL1        0.0208
     18 C         136.0308  140.6977  155.7028 C.ar    1  UNL1        0.1006
     19 N         136.4169  140.5183  157.1412 N.ar    1  UNL1       -0.2236
@<TRIPOS>BOND
     1     9    10    1
     2    10    11    1
     3    10     1    1
     4     1     2   ar
     5     2     3   ar
     6     3     4   ar
     7     4    12    1
     8    12    13    2
     9    13    14    1
    10    14    15   ar
    11    15    16   ar
    12    16    17   ar
    13    17    18   ar
    14    18    19   ar
    15     4     5   ar
    16     5     6    1
    17     5     7   ar
    18     7     1   ar
    19    19    14   ar
    20     6     8    1
@<TRIPOS>MOLECULE
*****
 19 20 0 0 0
SMALL
GASTEIGER

@<TRIPOS>ATOM
      1 C         139.2216  143.0865  160.6099 C.ar    1  UNL1        0.0511
      2 C         140.3299  143.5653  161.4999 C.ar    1  UNL1        0.0163
      3 C         140.2478  143.3497  162.9821 C.ar    1  UNL1        0.0253
      4 C         139.0574  142.6552  163.5742 C.ar    1  UNL1        0.1365
      5 C         137.9491  142.1764  162.6841 C.ar    1  UNL1        0.1541
      6 O         136.7586  141.4820  163.2762 O.3     1  UNL1       -0.5039
      7 C         138.0311  142.3921  161.2019 C.ar    1  UNL1        0.0527
      8 H         136.7073  141.3472  164.2020 H       1  UNL1        0.2923
      9 C         138.4067  142.5296  158.2066 C.3     1  UNL1        0.1122
     10 N         139.3036  143.3022  159.1277 N.pl3   1  UNL1       -0.3040
     11 C         140.2827  144.2904  158.5667 C.3     1  UNL1        0.1122
     12 N         138.9753  142.4396  165.0563 N.2     1  UNL1       -0.1435
     13 N         140.1717  141.9365  165.8084 N.2     1  UNL1       -0.1284
     14 C         140.0896  141.7208  167.2905 C.ar    1  UNL1        0.1838
     15 C         139.6360  140.3974  167.8319 C.ar    1  UNL1        0.0406
     16 C         139.5540  140.1818  169.3140 C.ar    1  UNL1        0.0048
     17 C         139.9254  141.2895  170.2548 C.ar    1  UNL1        0.0208
     18 C         140.3789  142.6129  169.7134 C.ar    1  UNL1        0.1006
     19 N         140.4610  142.8285  168.2313 N.ar    1  UNL1       -0.2236
@<TRIPOS>BOND
     1     9    10    1
     2    10    11    1
     3    10     1    1
     4     1     2   ar
     5     2     3   ar
     6     3     4   ar
     7     4    12    1
     8    12    13    2
     9    13    14    1
    10    14    15   ar
    11    15    16   ar
    12    16    17   ar
    13    17    18   ar
    14    18    19   ar
    15     4     5   ar
    16     5     6    1
    17     5     7   ar
    18     7     1   ar
    19    19    14   ar
    20     6     8    1
