@<TRIPOS>MOLECULE
*****
 30 33 0 0 0
SMALL
GASTEIGER

@<TRIPOS>ATOM
      1 C         140.5190  143.6769  163.8484 C.ar    1  UNL1        0.1122
      2 N         140.8892  143.9052  162.4129 N.ar    1  UNL1       -0.2259
      3 C         139.7217  144.5546  161.7306 C.ar    1  UNL1        0.1412
      4 C         138.6299  144.7276  162.7446 C.ar    1  UNL1        0.0710
      5 S         139.1226  144.1852  164.0534 S.2     1  UNL1       -0.0670
      6 C         139.6049  140.2573  167.9376 C.3     1  UNL1        0.0320
      7 C         140.2005  141.1884  166.9234 C.3     1  UNL1        0.1155
      8 C         141.6689  141.4928  166.9560 C.3     1  UNL1        0.0328
      9 C         142.2645  142.4239  165.9419 C.3     1  UNL1        0.0426
     10 C         143.7330  142.7283  165.9745 C.3     1  UNL1        0.0673
     11 S         144.3286  143.6593  164.9604 S.3     1  UNL1       -0.0807
     12 C         143.4557  144.2859  163.9136 C.2     1  UNL1        0.1483
     13 N         144.0513  145.2169  162.8995 N.pl3   1  UNL1       -0.3380
     14 N         141.9874  143.9814  163.8810 N.2     1  UNL1       -0.2464
     15 C         141.3918  143.0504  164.8951 C.3     1  UNL1        0.1549
     16 C         139.9234  142.7459  164.8626 C.3     1  UNL1        0.1705
     17 O         139.3278  141.8149  165.8767 O.3     1  UNL1       -0.3538
     18 H         145.0151  145.4167  162.9209 H       1  UNL1        0.1442
     19 H         143.4785  145.6281  162.2125 H       1  UNL1        0.1442
     20 N         139.6574  144.9597  160.2878 N.am    1  UNL1       -0.2641
     21 C         140.9221  145.1331  159.5004 C.2     1  UNL1        0.2683
     22 O         142.2514  144.9012  160.1557 O.2     1  UNL1       -0.2681
     23 H         138.7849  145.1119  159.8577 H       1  UNL1        0.1566
     24 C         140.8577  145.5382  158.0576 C.ar    1  UNL1        0.1349
     25 C         141.9041  145.0576  157.0962 C.ar    1  UNL1        0.0246
     26 C         141.8397  145.4628  155.6534 C.ar    1  UNL1        0.0147
     27 C         140.7291  146.3486  155.1719 C.ar    1  UNL1        0.0768
     28 CL        140.6647  146.7537  153.7292 Cl      1  UNL1       -0.0806
     29 C         139.6828  146.8292  156.1333 C.ar    1  UNL1        0.1103
     30 N         139.7471  146.4240  157.5761 N.ar    1  UNL1       -0.2384
@<TRIPOS>BOND
     1     7     6    1
     2     7     8    1
     3     9     8    1
     4     9    10    1
     5    10    11    1
     6    11    12    1
     7    12    13    1
     8    12    14    2
     9    14    15    1
    10    15     1    1
    11     1     2   ar
    12     2     3   ar
    13     3    20    1
    14    20    21   am
    15    21    22    2
    16    21    24    1
    17    24    25   ar
    18    25    26   ar
    19    26    27   ar
    20    27    28    1
    21    27    29   ar
    22    29    30   ar
    23     3     4   ar
    24     4     5   ar
    25    15    16    1
    26    16    17    1
    27    17     7    1
    28    15     9    1
    29     5     1   ar
    30    30    24   ar
    31    13    18    1
    32    13    19    1
    33    20    23    1
@<TRIPOS>MOLECULE
*****
 30 33 0 0 0
SMALL
GASTEIGER

@<TRIPOS>ATOM
      1 C         142.1626  142.5341  163.4649 C.ar    1  UNL1        0.1122
      2 N         142.1256  142.7378  161.9792 N.ar    1  UNL1       -0.2259
      3 C         142.0007  144.2094  161.7160 C.ar    1  UNL1        0.1412
      4 C         141.9605  144.9151  163.0391 C.ar    1  UNL1        0.0710
      5 S         142.0606  143.8798  164.1199 S.2     1  UNL1       -0.0670
      6 C         138.6128  139.2329  165.8628 C.3     1  UNL1        0.0320
      7 C         139.8355  139.8941  165.2990 C.3     1  UNL1        0.1155
      8 C         141.1765  139.2374  165.4418 C.3     1  UNL1        0.0328
      9 C         142.3992  139.8985  164.8780 C.3     1  UNL1        0.0426
     10 C         143.7402  139.2417  165.0208 C.3     1  UNL1        0.0673
     11 S         144.9630  139.9029  164.4570 S.3     1  UNL1       -0.0807
     12 C         144.8446  141.2208  163.7504 C.2     1  UNL1        0.1483
     13 N         146.0673  141.8819  163.1866 N.pl3   1  UNL1       -0.3380
     14 N         143.5036  141.8775  163.6077 N.2     1  UNL1       -0.2464
     15 C         142.2809  141.2163  164.1715 C.3     1  UNL1        0.1549
     16 C         140.9399  141.8730  164.0287 C.3     1  UNL1        0.1705
     17 O         139.7172  141.2119  164.5925 O.3     1  UNL1       -0.3538
     18 H         146.9475  141.4509  163.2803 H       1  UNL1        0.1442
     19 H         145.9897  142.7468  162.7229 H       1  UNL1        0.1442
     20 N         141.9286  144.8607  160.3668 N.am    1  UNL1       -0.2641
     21 C         140.6277  144.8996  159.6213 C.2     1  UNL1        0.2683
     22 O         139.3986  144.2872  160.2251 O.2     1  UNL1       -0.2681
     23 H         142.7353  145.2627  159.9705 H       1  UNL1        0.1566
     24 C         140.5556  145.5510  158.2720 C.ar    1  UNL1        0.1349
     25 C         141.6282  145.2921  157.2559 C.ar    1  UNL1        0.0246
     26 C         141.5562  145.9434  155.9067 C.ar    1  UNL1        0.0147
     27 C         140.4115  146.8537  155.5735 C.ar    1  UNL1        0.0768
     28 CL        140.3395  147.5050  154.2242 Cl      1  UNL1       -0.0806
     29 C         139.3389  147.1126  156.5895 C.ar    1  UNL1        0.1103
     30 N         139.4110  146.4612  157.9388 N.ar    1  UNL1       -0.2384
@<TRIPOS>BOND
     1     7     6    1
     2     7     8    1
     3     9     8    1
     4     9    10    1
     5    10    11    1
     6    11    12    1
     7    12    13    1
     8    12    14    2
     9    14    15    1
    10    15     1    1
    11     1     2   ar
    12     2     3   ar
    13     3    20    1
    14    20    21   am
    15    21    22    2
    16    21    24    1
    17    24    25   ar
    18    25    26   ar
    19    26    27   ar
    20    27    28    1
    21    27    29   ar
    22    29    30   ar
    23     3     4   ar
    24     4     5   ar
    25    15    16    1
    26    16    17    1
    27    17     7    1
    28    15     9    1
    29     5     1   ar
    30    30    24   ar
    31    13    18    1
    32    13    19    1
    33    20    23    1
@<TRIPOS>MOLECULE
*****
 30 33 0 0 0
SMALL
GASTEIGER

@<TRIPOS>ATOM
      1 C         138.9503  142.3452  164.2054 C.ar    1  UNL1        0.1122
      2 N         139.5020  142.3178  162.8108 N.ar    1  UNL1       -0.2259
      3 C         138.8823  143.4489  162.0448 C.ar    1  UNL1        0.1412
      4 C         137.9476  144.1754  162.9660 C.ar    1  UNL1        0.0710
      5 S         137.9896  143.4933  164.3013 S.2     1  UNL1       -0.0670
      6 C         140.9844  142.9516  169.1798 C.3     1  UNL1        0.0320
      7 C         140.4223  142.4317  167.8899 C.3     1  UNL1        0.1155
      8 C         140.2081  140.9588  167.7048 C.3     1  UNL1        0.0328
      9 C         139.6460  140.4389  166.4149 C.3     1  UNL1        0.0426
     10 C         139.4317  138.9658  166.2297 C.3     1  UNL1        0.0673
     11 S         138.8697  138.4460  164.9398 S.3     1  UNL1       -0.0807
     12 C         138.5218  139.3993  163.8351 C.2     1  UNL1        0.1483
     13 N         137.9597  138.8794  162.5452 N.pl3   1  UNL1       -0.3380
     14 N         138.7360  140.8723  164.0203 N.2     1  UNL1       -0.2464
     15 C         139.2981  141.3921  165.3102 C.3     1  UNL1        0.1549
     16 C         139.5124  142.8651  165.4953 C.3     1  UNL1        0.1705
     17 O         140.0745  143.3849  166.7852 O.3     1  UNL1       -0.3538
     18 H         137.8191  137.9126  162.4236 H       1  UNL1        0.1442
     19 H         137.7314  139.5050  161.8201 H       1  UNL1        0.1442
     20 N         139.1502  143.7930  160.6096 N.am    1  UNL1       -0.2641
     21 C         140.4387  144.4580  160.2258 C.2     1  UNL1        0.2683
     22 O         141.4594  144.7789  161.2772 O.2     1  UNL1       -0.2681
     23 H         138.4804  143.5824  159.9196 H       1  UNL1        0.1566
     24 C         140.7067  144.8021  158.7906 C.ar    1  UNL1        0.1349
     25 C         139.7868  144.3040  157.7156 C.ar    1  UNL1        0.0246
     26 C         140.0548  144.6481  156.2804 C.ar    1  UNL1        0.0147
     27 C         141.2426  145.4903  155.9202 C.ar    1  UNL1        0.0768
     28 CL        141.5105  145.8345  154.4850 Cl      1  UNL1       -0.0806
     29 C         142.1624  145.9884  156.9953 C.ar    1  UNL1        0.1103
     30 N         141.8945  145.6443  158.4305 N.ar    1  UNL1       -0.2384
@<TRIPOS>BOND
     1     7     6    1
     2     7     8    1
     3     9     8    1
     4     9    10    1
     5    10    11    1
     6    11    12    1
     7    12    13    1
     8    12    14    2
     9    14    15    1
    10    15     1    1
    11     1     2   ar
    12     2     3   ar
    13     3    20    1
    14    20    21   am
    15    21    22    2
    16    21    24    1
    17    24    25   ar
    18    25    26   ar
    19    26    27   ar
    20    27    28    1
    21    27    29   ar
    22    29    30   ar
    23     3     4   ar
    24     4     5   ar
    25    15    16    1
    26    16    17    1
    27    17     7    1
    28    15     9    1
    29     5     1   ar
    30    30    24   ar
    31    13    18    1
    32    13    19    1
    33    20    23    1
@<TRIPOS>MOLECULE
*****
 30 33 0 0 0
SMALL
GASTEIGER

@<TRIPOS>ATOM
      1 C         142.9316  142.4271  165.0393 C.ar    1  UNL1        0.1122
      2 N         142.1175  142.8001  163.8359 N.ar    1  UNL1       -0.2259
      3 C         142.7870  143.9632  163.1656 C.ar    1  UNL1        0.1412
      4 C         144.0149  144.3090  163.9549 C.ar    1  UNL1        0.0710
      5 S         144.1042  143.3597  165.1128 S.2     1  UNL1       -0.0670
      6 C         139.9063  142.0598  169.5073 C.3     1  UNL1        0.0320
      7 C         140.8131  141.8121  168.3383 C.3     1  UNL1        0.1155
      8 C         141.4148  140.4539  168.1305 C.3     1  UNL1        0.0328
      9 C         142.3216  140.2062  166.9615 C.3     1  UNL1        0.0426
     10 C         142.9233  138.8480  166.7537 C.3     1  UNL1        0.0673
     11 S         143.8301  138.6003  165.5848 S.3     1  UNL1       -0.0807
     12 C         144.1351  139.7108  164.6236 C.2     1  UNL1        0.1483
     13 N         145.0418  139.4631  163.4547 N.pl3   1  UNL1       -0.3380
     14 N         143.5333  141.0690  164.8315 N.2     1  UNL1       -0.2464
     15 C         142.6266  141.3167  166.0004 C.3     1  UNL1        0.1549
     16 C         142.0248  142.6748  166.2083 C.3     1  UNL1        0.1705
     17 O         141.1181  142.9225  167.3772 O.3     1  UNL1       -0.3538
     18 H         145.4368  138.5717  163.3183 H       1  UNL1        0.1442
     19 H         145.2420  140.1920  162.8239 H       1  UNL1        0.1442
     20 N         142.3121  144.6583  161.9242 N.am    1  UNL1       -0.2641
     21 C         142.2779  143.9212  160.6184 C.2     1  UNL1        0.2683
     22 O         142.7186  142.4888  160.5539 O.2     1  UNL1       -0.2681
     23 H         142.0228  145.5984  161.9665 H       1  UNL1        0.1566
     24 C         141.8029  144.6164  159.3769 C.ar    1  UNL1        0.1349
     25 C         140.4615  145.2874  159.3597 C.ar    1  UNL1        0.0246
     26 C         139.9865  145.9825  158.1182 C.ar    1  UNL1        0.0147
     27 C         140.8529  146.0067  156.8941 C.ar    1  UNL1        0.0768
     28 CL        140.3780  146.7019  155.6527 Cl      1  UNL1       -0.0806
     29 C         142.1944  145.3357  156.9113 C.ar    1  UNL1        0.1103
     30 N         142.6693  144.6405  158.1528 N.ar    1  UNL1       -0.2384
@<TRIPOS>BOND
     1     7     6    1
     2     7     8    1
     3     9     8    1
     4     9    10    1
     5    10    11    1
     6    11    12    1
     7    12    13    1
     8    12    14    2
     9    14    15    1
    10    15     1    1
    11     1     2   ar
    12     2     3   ar
    13     3    20    1
    14    20    21   am
    15    21    22    2
    16    21    24    1
    17    24    25   ar
    18    25    26   ar
    19    26    27   ar
    20    27    28    1
    21    27    29   ar
    22    29    30   ar
    23     3     4   ar
    24     4     5   ar
    25    15    16    1
    26    16    17    1
    27    17     7    1
    28    15     9    1
    29     5     1   ar
    30    30    24   ar
    31    13    18    1
    32    13    19    1
    33    20    23    1
@<TRIPOS>MOLECULE
*****
 30 33 0 0 0
SMALL
GASTEIGER

@<TRIPOS>ATOM
      1 C         139.8485  143.4102  160.9457 C.ar    1  UNL1        0.1122
      2 N         139.4456  144.5454  160.0519 N.ar    1  UNL1       -0.2259
      3 C         140.5779  144.8148  159.1056 C.ar    1  UNL1        0.1412
      4 C         141.6807  143.8460  159.4146 C.ar    1  UNL1        0.0710
      5 S         141.2299  142.9779  160.5518 S.2     1  UNL1       -0.0670
      6 C         138.3897  145.0734  165.8808 C.3     1  UNL1        0.0320
      7 C         138.5986  144.3197  164.6008 C.3     1  UNL1        0.1155
      8 C         137.9752  142.9679  164.4162 C.3     1  UNL1        0.0328
      9 C         138.1841  142.2141  163.1363 C.3     1  UNL1        0.0426
     10 C         137.5607  140.8623  162.9517 C.3     1  UNL1        0.0673
     11 S         137.7696  140.1086  161.6717 S.3     1  UNL1       -0.0807
     12 C         138.6019  140.7066  160.5764 C.2     1  UNL1        0.1483
     13 N         138.8107  139.9529  159.2965 N.pl3   1  UNL1       -0.3380
     14 N         139.2252  142.0584  160.7610 N.2     1  UNL1       -0.2464
     15 C         139.0163  142.8122  162.0410 C.3     1  UNL1        0.1549
     16 C         139.6397  144.1639  162.2256 C.3     1  UNL1        0.1705
     17 O         139.4308  144.9177  163.5055 O.3     1  UNL1       -0.3538
     18 H         138.4016  139.0657  159.1753 H       1  UNL1        0.1442
     19 H         139.3570  140.3454  158.5776 H       1  UNL1        0.1442
     20 N         140.6030  145.8680  158.0378 N.am    1  UNL1       -0.2641
     21 C         139.8838  145.6392  156.7416 C.2     1  UNL1        0.2683
     22 O         139.1394  144.3571  156.5131 O.2     1  UNL1       -0.2681
     23 H         141.0916  146.7095  158.1878 H       1  UNL1        0.1566
     24 C         139.9090  146.6924  155.6739 C.ar    1  UNL1        0.1349
     25 C         140.6866  146.4627  154.4119 C.ar    1  UNL1        0.0246
     26 C         140.7118  147.5159  153.3442 C.ar    1  UNL1        0.0147
     27 C         139.9593  148.7988  153.5383 C.ar    1  UNL1        0.0768
     28 CL        139.9844  149.8520  152.4706 Cl      1  UNL1       -0.0806
     29 C         139.1816  149.0285  154.8003 C.ar    1  UNL1        0.1103
     30 N         139.1565  147.9753  155.8680 N.ar    1  UNL1       -0.2384
@<TRIPOS>BOND
     1     7     6    1
     2     7     8    1
     3     9     8    1
     4     9    10    1
     5    10    11    1
     6    11    12    1
     7    12    13    1
     8    12    14    2
     9    14    15    1
    10    15     1    1
    11     1     2   ar
    12     2     3   ar
    13     3    20    1
    14    20    21   am
    15    21    22    2
    16    21    24    1
    17    24    25   ar
    18    25    26   ar
    19    26    27   ar
    20    27    28    1
    21    27    29   ar
    22    29    30   ar
    23     3     4   ar
    24     4     5   ar
    25    15    16    1
    26    16    17    1
    27    17     7    1
    28    15     9    1
    29     5     1   ar
    30    30    24   ar
    31    13    18    1
    32    13    19    1
    33    20    23    1
@<TRIPOS>MOLECULE
*****
 30 33 0 0 0
SMALL
GASTEIGER

@<TRIPOS>ATOM
      1 C         140.3290  143.3016  163.9366 C.ar    1  UNL1        0.1122
      2 N         140.0070  142.5945  162.6536 N.ar    1  UNL1       -0.2259
      3 C         138.9788  143.4061  161.9225 C.ar    1  UNL1        0.1412
      4 C         138.6655  144.6147  162.7538 C.ar    1  UNL1        0.0710
      5 S         139.4999  144.5502  163.9985 S.2     1  UNL1       -0.0670
      6 C         139.9474  140.1465  168.3126 C.3     1  UNL1        0.0320
      7 C         140.4010  141.0447  167.2002 C.3     1  UNL1        0.1155
      8 C         141.8338  141.4823  167.1266 C.3     1  UNL1        0.0328
      9 C         142.2874  142.3805  166.0141 C.3     1  UNL1        0.0426
     10 C         143.7203  142.8182  165.9405 C.3     1  UNL1        0.0673
     11 S         144.1739  143.7164  164.8281 S.3     1  UNL1       -0.0807
     12 C         143.1946  144.1769  163.7893 C.2     1  UNL1        0.1483
     13 N         143.6483  145.0751  162.6769 N.pl3   1  UNL1       -0.3380
     14 N         141.7618  143.7393  163.8630 N.2     1  UNL1       -0.2464
     15 C         141.3082  142.8411  164.9754 C.3     1  UNL1        0.1549
     16 C         139.8754  142.4034  165.0491 C.3     1  UNL1        0.1705
     17 O         139.4218  141.5052  166.1615 O.3     1  UNL1       -0.3538
     18 H         144.5887  145.3624  162.6286 H       1  UNL1        0.1442
     19 H         143.0056  145.3774  161.9951 H       1  UNL1        0.1442
     20 N         138.3708  143.0682  160.5935 N.am    1  UNL1       -0.2641
     21 C         139.2274  143.0387  159.3626 C.2     1  UNL1        0.2683
     22 O         140.6922  143.3469  159.4607 O.2     1  UNL1       -0.2681
     23 H         137.4094  142.8659  160.5292 H       1  UNL1        0.1566
     24 C         138.6194  142.7008  158.0336 C.ar    1  UNL1        0.1349
     25 C         138.9457  143.5301  156.8270 C.ar    1  UNL1        0.0246
     26 C         138.3377  143.1923  155.4981 C.ar    1  UNL1        0.0147
     27 C         137.4034  142.0253  155.3757 C.ar    1  UNL1        0.0768
     28 CL        136.7953  141.6874  154.0467 Cl      1  UNL1       -0.0806
     29 C         137.0771  141.1960  156.5823 C.ar    1  UNL1        0.1103
     30 N         137.6851  141.5338  157.9112 N.ar    1  UNL1       -0.2384
@<TRIPOS>BOND
     1     7     6    1
     2     7     8    1
     3     9     8    1
     4     9    10    1
     5    10    11    1
     6    11    12    1
     7    12    13    1
     8    12    14    2
     9    14    15    1
    10    15     1    1
    11     1     2   ar
    12     2     3   ar
    13     3    20    1
    14    20    21   am
    15    21    22    2
    16    21    24    1
    17    24    25   ar
    18    25    26   ar
    19    26    27   ar
    20    27    28    1
    21    27    29   ar
    22    29    30   ar
    23     3     4   ar
    24     4     5   ar
    25    15    16    1
    26    16    17    1
    27    17     7    1
    28    15     9    1
    29     5     1   ar
    30    30    24   ar
    31    13    18    1
    32    13    19    1
    33    20    23    1
@<TRIPOS>MOLECULE
*****
 30 33 0 0 0
SMALL
GASTEIGER

@<TRIPOS>ATOM
      1 C         141.6640  141.2748  162.3515 C.ar    1  UNL1        0.1122
      2 N         141.4653  140.8890  160.9156 N.ar    1  UNL1       -0.2259
      3 C         141.6248  139.4013  160.8089 C.ar    1  UNL1        0.1412
      4 C         141.9219  138.8676  162.1789 C.ar    1  UNL1        0.0710
      5 S         141.9462  140.0254  163.1322 S.2     1  UNL1       -0.0670
      6 C         137.7524  144.1776  164.7017 C.3     1  UNL1        0.0320
      7 C         139.0326  143.6736  164.1040 C.3     1  UNL1        0.1155
      8 C         140.2417  144.5603  164.0637 C.3     1  UNL1        0.0328
      9 C         141.5218  144.0563  163.4660 C.3     1  UNL1        0.0426
     10 C         142.7309  144.9432  163.4257 C.3     1  UNL1        0.0673
     11 S         144.0111  144.4392  162.8280 S.3     1  UNL1       -0.0807
     12 C         144.0821  143.0483  162.2707 C.2     1  UNL1        0.1483
     13 N         145.3623  142.5443  161.6731 N.pl3   1  UNL1       -0.3380
     14 N         142.8730  142.1615  162.3111 N.2     1  UNL1       -0.2464
     15 C         141.5929  142.6655  162.9087 C.3     1  UNL1        0.1549
     16 C         140.3838  141.7788  162.9491 C.3     1  UNL1        0.1705
     17 O         139.1036  142.2828  163.5467 O.3     1  UNL1       -0.3538
     18 H         146.1559  143.1264  161.6466 H       1  UNL1        0.1442
     19 H         145.4089  141.6315  161.3073 H       1  UNL1        0.1442
     20 N         141.5076  138.5898  159.5528 N.am    1  UNL1       -0.2641
     21 C         142.6410  138.5599  158.5708 C.2     1  UNL1        0.2683
     22 O         143.8917  139.3415  158.8449 O.2     1  UNL1       -0.2681
     23 H         140.6868  138.0768  159.3729 H       1  UNL1        0.1566
     24 C         142.5238  137.7484  157.3147 C.ar    1  UNL1        0.1349
     25 C         141.1825  137.2470  156.8681 C.ar    1  UNL1        0.0246
     26 C         141.0653  136.4355  155.6121 C.ar    1  UNL1        0.0147
     27 C         142.2894  136.1254  154.8026 C.ar    1  UNL1        0.0768
     28 CL        142.1722  135.3140  153.5465 Cl      1  UNL1       -0.0806
     29 C         143.6307  136.6269  155.2492 C.ar    1  UNL1        0.1103
     30 N         143.7479  137.4383  156.5052 N.ar    1  UNL1       -0.2384
@<TRIPOS>BOND
     1     7     6    1
     2     7     8    1
     3     9     8    1
     4     9    10    1
     5    10    11    1
     6    11    12    1
     7    12    13    1
     8    12    14    2
     9    14    15    1
    10    15     1    1
    11     1     2   ar
    12     2     3   ar
    13     3    20    1
    14    20    21   am
    15    21    22    2
    16    21    24    1
    17    24    25   ar
    18    25    26   ar
    19    26    27   ar
    20    27    28    1
    21    27    29   ar
    22    29    30   ar
    23     3     4   ar
    24     4     5   ar
    25    15    16    1
    26    16    17    1
    27    17     7    1
    28    15     9    1
    29     5     1   ar
    30    30    24   ar
    31    13    18    1
    32    13    19    1
    33    20    23    1
@<TRIPOS>MOLECULE
*****
 30 33 0 0 0
SMALL
GASTEIGER

@<TRIPOS>ATOM
      1 C         139.4688  140.5312  163.6308 C.ar    1  UNL1        0.1122
      2 N         140.3466  140.2626  162.4445 N.ar    1  UNL1       -0.2259
      3 C         139.7904  139.0753  161.7157 C.ar    1  UNL1        0.1412
      4 C         138.5689  138.6101  162.4517 C.ar    1  UNL1        0.0710
      5 S         138.3701  139.5099  163.6353 S.2     1  UNL1       -0.0670
      6 C         141.7873  140.7898  168.5101 C.3     1  UNL1        0.0320
      7 C         141.0771  141.0693  167.2188 C.3     1  UNL1        0.1155
      8 C         140.5548  142.4461  166.9329 C.3     1  UNL1        0.0328
      9 C         139.8446  142.7256  165.6416 C.3     1  UNL1        0.0426
     10 C         139.3223  144.1024  165.3557 C.3     1  UNL1        0.0673
     11 S         138.6121  144.3819  164.0644 S.3     1  UNL1       -0.0807
     12 C         138.4242  143.2846  163.0590 C.2     1  UNL1        0.1483
     13 N         137.7140  143.5642  161.7677 N.pl3   1  UNL1       -0.3380
     14 N         138.9465  141.9079  163.3449 N.2     1  UNL1       -0.2464
     15 C         139.6567  141.6284  164.6362 C.3     1  UNL1        0.1549
     16 C         140.1790  140.2517  164.9222 C.3     1  UNL1        0.1705
     17 O         140.8892  139.9722  166.2135 O.3     1  UNL1       -0.3538
     18 H         137.3712  144.4678  161.5800 H       1  UNL1        0.1442
     19 H         137.5907  142.8440  161.1078 H       1  UNL1        0.1442
     20 N         140.3563  138.4610  160.4697 N.am    1  UNL1       -0.2641
     21 C         139.6833  138.6890  159.1488 C.2     1  UNL1        0.2683
     22 O         138.4443  139.5313  159.0737 O.2     1  UNL1       -0.2681
     23 H         141.1695  137.9082  160.5190 H       1  UNL1        0.1566
     24 C         140.2493  138.0747  157.9028 C.ar    1  UNL1        0.1349
     25 C         141.7348  137.9510  157.7357 C.ar    1  UNL1        0.0246
     26 C         142.3007  137.3367  156.4897 C.ar    1  UNL1        0.0147
     27 C         141.3812  136.8462  155.4110 C.ar    1  UNL1        0.0768
     28 CL        141.9471  136.2320  154.1650 Cl      1  UNL1       -0.0806
     29 C         139.8957  136.9700  155.5781 C.ar    1  UNL1        0.1103
     30 N         139.3298  137.5842  156.8241 N.ar    1  UNL1       -0.2384
@<TRIPOS>BOND
     1     7     6    1
     2     7     8    1
     3     9     8    1
     4     9    10    1
     5    10    11    1
     6    11    12    1
     7    12    13    1
     8    12    14    2
     9    14    15    1
    10    15     1    1
    11     1     2   ar
    12     2     3   ar
    13     3    20    1
    14    20    21   am
    15    21    22    2
    16    21    24    1
    17    24    25   ar
    18    25    26   ar
    19    26    27   ar
    20    27    28    1
    21    27    29   ar
    22    29    30   ar
    23     3     4   ar
    24     4     5   ar
    25    15    16    1
    26    16    17    1
    27    17     7    1
    28    15     9    1
    29     5     1   ar
    30    30    24   ar
    31    13    18    1
    32    13    19    1
    33    20    23    1
@<TRIPOS>MOLECULE
*****
 30 33 0 0 0
SMALL
GASTEIGER

@<TRIPOS>ATOM
      1 C         141.8672  139.7840  165.9320 C.ar    1  UNL1        0.1122
      2 N         141.9253  140.6104  164.6815 N.ar    1  UNL1       -0.2259
      3 C         143.1604  140.2203  163.9249 C.ar    1  UNL1        0.1412
      4 C         143.8657  139.1526  164.7078 C.ar    1  UNL1        0.0710
      5 S         143.0665  138.8830  165.9482 S.2     1  UNL1       -0.0670
      6 C         141.6809  141.7055  170.9840 C.3     1  UNL1        0.0320
      7 C         141.3866  141.0861  169.6500 C.3     1  UNL1        0.1155
      8 C         140.0228  140.5301  169.3658 C.3     1  UNL1        0.0328
      9 C         139.7284  139.9107  168.0317 C.3     1  UNL1        0.0426
     10 C         138.3645  139.3547  167.7475 C.3     1  UNL1        0.0673
     11 S         138.0701  138.7353  166.4135 S.3     1  UNL1       -0.0807
     12 C         139.1396  138.6719  165.3636 C.2     1  UNL1        0.1483
     13 N         138.8453  138.0526  164.0295 N.pl3   1  UNL1       -0.3380
     14 N         140.5034  139.2280  165.6478 N.2     1  UNL1       -0.2464
     15 C         140.7978  139.8473  166.9818 C.3     1  UNL1        0.1549
     16 C         142.1616  140.4034  167.2660 C.3     1  UNL1        0.1705
     17 O         142.4560  141.0228  168.6001 O.3     1  UNL1       -0.3538
     18 H         137.9501  137.6876  163.8430 H       1  UNL1        0.1442
     19 H         139.5472  138.0110  163.3405 H       1  UNL1        0.1442
     20 N         143.6111  140.7965  162.6154 N.am    1  UNL1       -0.2641
     21 C         143.3683  140.0432  161.3413 C.2     1  UNL1        0.2683
     22 O         142.6748  138.7135  161.3767 O.2     1  UNL1       -0.2681
     23 H         144.0662  141.6692  162.5922 H       1  UNL1        0.1566
     24 C         143.8190  140.6194  160.0318 C.ar    1  UNL1        0.1349
     25 C         144.1948  142.0687  159.9397 C.ar    1  UNL1        0.0246
     26 C         144.6454  142.6449  158.6302 C.ar    1  UNL1        0.0147
     27 C         144.7203  141.7720  157.4128 C.ar    1  UNL1        0.0768
     28 CL        145.1710  142.3482  156.1033 Cl      1  UNL1       -0.0806
     29 C         144.3445  140.3227  157.5048 C.ar    1  UNL1        0.1103
     30 N         143.8939  139.7465  158.8143 N.ar    1  UNL1       -0.2384
@<TRIPOS>BOND
     1     7     6    1
     2     7     8    1
     3     9     8    1
     4     9    10    1
     5    10    11    1
     6    11    12    1
     7    12    13    1
     8    12    14    2
     9    14    15    1
    10    15     1    1
    11     1     2   ar
    12     2     3   ar
    13     3    20    1
    14    20    21   am
    15    21    22    2
    16    21    24    1
    17    24    25   ar
    18    25    26   ar
    19    26    27   ar
    20    27    28    1
    21    27    29   ar
    22    29    30   ar
    23     3     4   ar
    24     4     5   ar
    25    15    16    1
    26    16    17    1
    27    17     7    1
    28    15     9    1
    29     5     1   ar
    30    30    24   ar
    31    13    18    1
    32    13    19    1
    33    20    23    1
