@<TRIPOS>MOLECULE
*****
 38 42 0 0 0
SMALL
GASTEIGER

@<TRIPOS>ATOM
      1 N         140.6699  142.7758  163.9055 N.am    1  UNL1       -0.2766
      2 C         139.5756  141.7511  163.8556 C.2     1  UNL1        0.2673
      3 O         138.7820  141.5619  162.5969 O.2     1  UNL1       -0.2682
      4 H         141.1908  142.8999  164.7316 H       1  UNL1        0.1553
      5 C         140.1454  146.1367  159.8669 C.3     1  UNL1        0.1538
      6 N         140.7296  145.1562  160.8402 N.ar    1  UNL1       -0.2459
      7 C         140.0086  144.5216  161.9925 C.ar    1  UNL1        0.1115
      8 C         140.9707  143.6113  162.6965 C.ar    1  UNL1        0.0937
      9 C         142.2862  143.6833  161.9795 C.ar    1  UNL1        0.1690
     10 N         142.1372  144.6380  160.8322 N.ar    1  UNL1       -0.1632
     11 C         143.5320  142.9323  162.3455 C.2     1  UNL1        0.2698
     12 O         144.7153  143.6678  162.9011 O.2     1  UNL1       -0.2681
     13 N         143.5945  141.4456  162.1560 N.am    1  UNL1       -0.2746
     14 C         144.6303  140.3880  162.3982 C.3     1  UNL1        0.0968
     15 C         143.6828  139.3431  161.8879 C.3     1  UNL1        0.0552
     16 C         142.6469  140.4007  161.6458 C.3     1  UNL1        0.0968
     17 C         143.7452  137.8564  161.6984 C.3     1  UNL1        0.0685
     18 N         142.5743  137.1254  161.1114 N.3     1  UNL1       -0.3210
     19 H         141.7821  137.1828  161.7513 H       1  UNL1        0.1189
     20 H         142.8229  136.1471  160.9650 H       1  UNL1        0.1189
     21 C         139.2749  140.9156  165.0646 C.ar    1  UNL1        0.1347
     22 C         138.2191  139.8522  164.9976 C.ar    1  UNL1        0.0238
     23 C         137.9184  139.0167  166.2065 C.ar    1  UNL1        0.0032
     24 C         138.6735  139.2446  167.4824 C.ar    1  UNL1        0.0192
     25 C         139.7293  140.3079  167.5494 C.ar    1  UNL1        0.0816
     26 N         140.0300  141.1434  166.3405 N.ar    1  UNL1       -0.2408
     27 C         140.4844  140.5358  168.8253 C.ar    1  UNL1        0.0220
     28 C         140.1063  141.6728  169.7277 C.ar    1  UNL1        0.0223
     29 C         140.8614  141.9006  171.0036 C.ar    1  UNL1        0.1003
     30 N         141.9945  140.9916  171.3771 N.ar    1  UNL1       -0.2294
     31 C         142.3726  139.8546  170.4747 C.ar    1  UNL1        0.1286
     32 C         141.6175  139.6268  169.1988 C.ar    1  UNL1        0.0356
     33 N         143.5058  138.9455  170.8481 N.pl3   1  UNL1       -0.3181
     34 H         144.3055  139.3118  171.2904 H       1  UNL1        0.1482
     35 C         143.4206  137.4784  170.5477 C.3     1  UNL1        0.0881
     36 C         144.3651  136.5207  171.2115 C.3     1  UNL1        0.0196
     37 C         144.7994  135.1142  171.4998 C.3     1  UNL1        0.0017
     38 C         145.5668  136.2685  172.0731 C.3     1  UNL1        0.0017
@<TRIPOS>BOND
     1     5     6    1
     2     6     7   ar
     3     7     8   ar
     4     8     1    1
     5     1     2   am
     6     2     3    2
     7     2    21    1
     8    21    22   ar
     9    22    23   ar
    10    23    24   ar
    11    24    25   ar
    12    25    27    1
    13    27    28   ar
    14    28    29   ar
    15    29    30   ar
    16    30    31   ar
    17    31    33    1
    18    33    35    1
    19    35    36    1
    20    36    37    1
    21    37    38    1
    22    31    32   ar
    23    25    26   ar
    24     8     9   ar
    25     9    11    1
    26    11    12    2
    27    11    13   am
    28    13    14    1
    29    14    15    1
    30    15    17    1
    31    17    18    1
    32    15    16    1
    33     9    10   ar
    34    10     6   ar
    35    26    21   ar
    36    16    13    1
    37    32    27   ar
    38    38    36    1
    39     1     4    1
    40    33    34    1
    41    18    19    1
    42    18    20    1
@<TRIPOS>MOLECULE
*****
 38 42 0 0 0
SMALL
GASTEIGER

@<TRIPOS>ATOM
      1 N         139.9051  142.2378  159.9870 N.am    1  UNL1       -0.2766
      2 C         138.8594  142.0948  161.0527 C.2     1  UNL1        0.2673
      3 O         137.8438  143.1795  161.2573 O.2     1  UNL1       -0.2682
      4 H         140.5717  141.5258  159.8527 H       1  UNL1        0.1553
      5 C         139.5122  145.4632  155.8248 C.3     1  UNL1        0.1538
      6 N         139.7547  144.9481  157.2125 N.ar    1  UNL1       -0.2459
      7 C         139.5856  143.5290  157.6684 C.ar    1  UNL1        0.1115
      8 C         139.9353  143.4656  159.1257 C.ar    1  UNL1        0.0937
      9 C         140.3205  144.8453  159.5705 C.ar    1  UNL1        0.1690
     10 N         140.2089  145.7616  158.3882 N.ar    1  UNL1       -0.1632
     11 C         140.7431  145.2396  160.9547 C.2     1  UNL1        0.2698
     12 O         139.9724  146.2850  161.7051 O.2     1  UNL1       -0.2681
     13 N         141.9365  144.5883  161.5886 N.am    1  UNL1       -0.2746
     14 C         142.6382  144.7155  162.9082 C.3     1  UNL1        0.0968
     15 C         143.6241  143.6672  162.4850 C.3     1  UNL1        0.0552
     16 C         142.9224  143.5400  161.1654 C.3     1  UNL1        0.0968
     17 C         144.8175  143.0159  163.1188 C.3     1  UNL1        0.0685
     18 N         145.6461  142.0429  162.3337 N.3     1  UNL1       -0.3210
     19 H         145.0900  141.2137  162.1248 H       1  UNL1        0.1189
     20 H         146.4644  141.7746  162.8803 H       1  UNL1        0.1189
     21 C         138.8292  140.8670  161.9140 C.ar    1  UNL1        0.1347
     22 C         138.1253  139.6320  161.4350 C.ar    1  UNL1        0.0238
     23 C         138.0952  138.4043  162.2962 C.ar    1  UNL1        0.0032
     24 C         138.7688  138.4116  163.6364 C.ar    1  UNL1        0.0192
     25 C         139.4727  139.6465  164.1154 C.ar    1  UNL1        0.0816
     26 N         139.5028  140.8742  163.2542 N.ar    1  UNL1       -0.2408
     27 C         140.1464  139.6538  165.4556 C.ar    1  UNL1        0.0220
     28 C         141.6394  139.5417  165.5451 C.ar    1  UNL1        0.0223
     29 C         142.3131  139.5490  166.8853 C.ar    1  UNL1        0.1003
     30 N         141.4937  139.6683  168.1360 N.ar    1  UNL1       -0.2294
     31 C         140.0006  139.7804  168.0465 C.ar    1  UNL1        0.1286
     32 C         139.3269  139.7731  166.7063 C.ar    1  UNL1        0.0356
     33 N         139.1811  139.8997  169.2972 N.pl3   1  UNL1       -0.3181
     34 H         138.5824  139.1656  169.5653 H       1  UNL1        0.1482
     35 C         139.2738  141.1375  170.1393 C.3     1  UNL1        0.0881
     36 C         140.0827  142.3083  169.6652 C.3     1  UNL1        0.0196
     37 C         140.3975  143.3283  168.6114 C.3     1  UNL1        0.0017
     38 C         141.1690  143.3162  169.8978 C.3     1  UNL1        0.0017
@<TRIPOS>BOND
     1     5     6    1
     2     6     7   ar
     3     7     8   ar
     4     8     1    1
     5     1     2   am
     6     2     3    2
     7     2    21    1
     8    21    22   ar
     9    22    23   ar
    10    23    24   ar
    11    24    25   ar
    12    25    27    1
    13    27    28   ar
    14    28    29   ar
    15    29    30   ar
    16    30    31   ar
    17    31    33    1
    18    33    35    1
    19    35    36    1
    20    36    37    1
    21    37    38    1
    22    31    32   ar
    23    25    26   ar
    24     8     9   ar
    25     9    11    1
    26    11    12    2
    27    11    13   am
    28    13    14    1
    29    14    15    1
    30    15    17    1
    31    17    18    1
    32    15    16    1
    33     9    10   ar
    34    10     6   ar
    35    26    21   ar
    36    16    13    1
    37    32    27   ar
    38    38    36    1
    39     1     4    1
    40    33    34    1
    41    18    19    1
    42    18    20    1
@<TRIPOS>MOLECULE
*****
 38 42 0 0 0
SMALL
GASTEIGER

@<TRIPOS>ATOM
      1 N         139.8495  142.2358  159.7718 N.am    1  UNL1       -0.2766
      2 C         138.7393  142.0218  160.7575 C.2     1  UNL1        0.2673
      3 O         137.6995  143.0841  160.9583 O.2     1  UNL1       -0.2682
      4 H         140.5319  141.5386  159.6401 H       1  UNL1        0.1553
      5 C         139.6367  145.7048  155.7967 C.3     1  UNL1        0.1538
      6 N         139.8221  145.1067  157.1597 N.ar    1  UNL1       -0.2459
      7 C         139.6277  143.6644  157.5235 C.ar    1  UNL1        0.1115
      8 C         139.9199  143.5122  158.9869 C.ar    1  UNL1        0.0937
      9 C         140.2949  144.8602  159.5275 C.ar    1  UNL1        0.1690
     10 N         140.2344  145.8456  158.3982 N.ar    1  UNL1       -0.1632
     11 C         140.6652  145.1685  160.9479 C.2     1  UNL1        0.2698
     12 O         139.8318  146.1235  161.7500 O.2     1  UNL1       -0.2681
     13 N         141.8691  144.5218  161.5664 N.am    1  UNL1       -0.2746
     14 C         142.5314  144.5802  162.9110 C.3     1  UNL1        0.0968
     15 C         143.5717  143.6072  162.4409 C.3     1  UNL1        0.0552
     16 C         142.9094  143.5487  161.0963 C.3     1  UNL1        0.0968
     17 C         144.7756  142.9604  163.0593 C.3     1  UNL1        0.0685
     18 N         145.6789  142.1031  162.2233 N.3     1  UNL1       -0.3210
     19 H         145.1736  141.2700  161.9216 H       1  UNL1        0.1189
     20 H         146.4915  141.8270  162.7745 H       1  UNL1        0.1189
     21 C         138.6688  140.7455  161.5425 C.ar    1  UNL1        0.1347
     22 C         138.4746  139.4383  160.8329 C.ar    1  UNL1        0.0238
     23 C         138.4042  138.1621  161.6178 C.ar    1  UNL1        0.0032
     24 C         138.5280  138.1930  163.1124 C.ar    1  UNL1        0.0192
     25 C         138.7222  139.5002  163.8220 C.ar    1  UNL1        0.0816
     26 N         138.7926  140.7764  163.0370 N.ar    1  UNL1       -0.2408
     27 C         138.8460  139.5311  165.3166 C.ar    1  UNL1        0.0220
     28 C         137.8122  138.8567  166.1689 C.ar    1  UNL1        0.0223
     29 C         137.9360  138.8876  167.6634 C.ar    1  UNL1        0.1003
     30 N         139.0936  139.5929  168.3057 N.ar    1  UNL1       -0.2294
     31 C         140.1274  140.2672  167.4534 C.ar    1  UNL1        0.1286
     32 C         140.0036  140.2363  165.9588 C.ar    1  UNL1        0.0356
     33 N         141.2851  140.9725  168.0957 N.pl3   1  UNL1       -0.3181
     34 H         141.1601  141.8661  168.4894 H       1  UNL1        0.1482
     35 C         142.6332  140.3162  168.1380 C.3     1  UNL1        0.0881
     36 C         143.0868  139.4599  166.9930 C.3     1  UNL1        0.0196
     37 C         143.4695  138.1159  166.4479 C.3     1  UNL1        0.0017
     38 C         143.4898  139.3209  165.5548 C.3     1  UNL1        0.0017
@<TRIPOS>BOND
     1     5     6    1
     2     6     7   ar
     3     7     8   ar
     4     8     1    1
     5     1     2   am
     6     2     3    2
     7     2    21    1
     8    21    22   ar
     9    22    23   ar
    10    23    24   ar
    11    24    25   ar
    12    25    27    1
    13    27    28   ar
    14    28    29   ar
    15    29    30   ar
    16    30    31   ar
    17    31    33    1
    18    33    35    1
    19    35    36    1
    20    36    37    1
    21    37    38    1
    22    31    32   ar
    23    25    26   ar
    24     8     9   ar
    25     9    11    1
    26    11    12    2
    27    11    13   am
    28    13    14    1
    29    14    15    1
    30    15    17    1
    31    17    18    1
    32    15    16    1
    33     9    10   ar
    34    10     6   ar
    35    26    21   ar
    36    16    13    1
    37    32    27   ar
    38    38    36    1
    39     1     4    1
    40    33    34    1
    41    18    19    1
    42    18    20    1
@<TRIPOS>MOLECULE
*****
 38 42 0 0 0
SMALL
GASTEIGER

@<TRIPOS>ATOM
      1 N         139.8699  141.4929  161.2326 N.am    1  UNL1       -0.2766
      2 C         138.7039  141.7917  162.1277 C.2     1  UNL1        0.2673
      3 O         137.3333  141.3045  161.7617 O.2     1  UNL1       -0.2682
      4 H         140.7695  141.8127  161.4729 H       1  UNL1        0.1553
      5 C         138.4033  140.1301  156.3466 C.3     1  UNL1        0.1538
      6 N         138.9912  140.0804  157.7257 N.ar    1  UNL1       -0.2459
      7 C         138.9637  141.1885  158.7364 C.ar    1  UNL1        0.1115
      8 C         139.6653  140.7068  159.9716 C.ar    1  UNL1        0.0937
      9 C         140.1264  139.3010  159.7244 C.ar    1  UNL1        0.1690
     10 N         139.7098  138.9138  158.3364 N.ar    1  UNL1       -0.1632
     11 C         140.8730  138.4345  160.6948 C.2     1  UNL1        0.2698
     12 O         142.2205  137.8868  160.3284 O.2     1  UNL1       -0.2681
     13 N         140.2721  138.1157  162.0317 N.am    1  UNL1       -0.2746
     14 C         140.7020  137.3129  163.2236 C.3     1  UNL1        0.0968
     15 C         139.4222  137.6648  163.9223 C.3     1  UNL1        0.0552
     16 C         138.9922  138.4676  162.7304 C.3     1  UNL1        0.0968
     17 C         138.8212  137.3460  165.2592 C.3     1  UNL1        0.0685
     18 N         138.4670  138.4544  166.2058 N.3     1  UNL1       -0.3210
     19 H         139.3182  138.9271  166.5096 H       1  UNL1        0.1189
     20 H         137.9848  138.0676  167.0171 H       1  UNL1        0.1189
     21 C         138.9085  142.5779  163.3887 C.ar    1  UNL1        0.1347
     22 C         138.3209  143.9517  163.5197 C.ar    1  UNL1        0.0238
     23 C         138.5255  144.7378  164.7807 C.ar    1  UNL1        0.0032
     24 C         139.3177  144.1500  165.9107 C.ar    1  UNL1        0.0192
     25 C         139.9052  142.7761  165.7798 C.ar    1  UNL1        0.0816
     26 N         139.7006  141.9901  164.5187 N.ar    1  UNL1       -0.2408
     27 C         140.6974  142.1883  166.9098 C.ar    1  UNL1        0.0220
     28 C         140.6709  142.8376  168.2617 C.ar    1  UNL1        0.0223
     29 C         141.4630  142.2498  169.3917 C.ar    1  UNL1        0.1003
     30 N         142.2817  141.0127  169.1698 N.ar    1  UNL1       -0.2294
     31 C         142.3083  140.3634  167.8179 C.ar    1  UNL1        0.1286
     32 C         141.5161  140.9512  166.6879 C.ar    1  UNL1        0.0356
     33 N         143.1270  139.1262  167.5960 N.pl3   1  UNL1       -0.3181
     34 H         143.7038  138.7820  168.3158 H       1  UNL1        0.1482
     35 C         143.0668  138.4136  166.2775 C.3     1  UNL1        0.0881
     36 C         143.7761  138.9825  165.0845 C.3     1  UNL1        0.0196
     37 C         145.0377  139.4616  164.4297 C.3     1  UNL1        0.0017
     38 C         143.7430  139.4887  163.6729 C.3     1  UNL1        0.0017
@<TRIPOS>BOND
     1     5     6    1
     2     6     7   ar
     3     7     8   ar
     4     8     1    1
     5     1     2   am
     6     2     3    2
     7     2    21    1
     8    21    22   ar
     9    22    23   ar
    10    23    24   ar
    11    24    25   ar
    12    25    27    1
    13    27    28   ar
    14    28    29   ar
    15    29    30   ar
    16    30    31   ar
    17    31    33    1
    18    33    35    1
    19    35    36    1
    20    36    37    1
    21    37    38    1
    22    31    32   ar
    23    25    26   ar
    24     8     9   ar
    25     9    11    1
    26    11    12    2
    27    11    13   am
    28    13    14    1
    29    14    15    1
    30    15    17    1
    31    17    18    1
    32    15    16    1
    33     9    10   ar
    34    10     6   ar
    35    26    21   ar
    36    16    13    1
    37    32    27   ar
    38    38    36    1
    39     1     4    1
    40    33    34    1
    41    18    19    1
    42    18    20    1
@<TRIPOS>MOLECULE
*****
 38 42 0 0 0
SMALL
GASTEIGER

@<TRIPOS>ATOM
      1 N         141.4835  144.0143  159.7523 N.am    1  UNL1       -0.2766
      2 C         141.2615  144.6526  161.0914 C.2     1  UNL1        0.2673
      3 O         140.2625  145.7620  161.2371 O.2     1  UNL1       -0.2682
      4 H         142.1391  143.2862  159.6567 H       1  UNL1        0.1553
      5 C         139.4701  147.0991  155.9693 C.3     1  UNL1        0.1538
      6 N         139.7811  145.9035  156.8199 N.ar    1  UNL1       -0.2459
      7 C         140.6869  145.8835  158.0155 C.ar    1  UNL1        0.1115
      8 C         140.7065  144.4855  158.5588 C.ar    1  UNL1        0.0937
      9 C         139.8129  143.6415  157.6992 C.ar    1  UNL1        0.1690
     10 N         139.2409  144.5178  156.6245 N.ar    1  UNL1       -0.1632
     11 C         139.5393  142.1781  157.8822 C.2     1  UNL1        0.2698
     12 O         139.8539  141.2124  156.7783 O.2     1  UNL1       -0.2681
     13 N         138.9509  141.6802  159.1691 N.am    1  UNL1       -0.2746
     14 C         138.5517  140.3366  159.7032 C.3     1  UNL1        0.0968
     15 C         138.1189  140.9763  160.9891 C.3     1  UNL1        0.0552
     16 C         138.5182  142.3199  160.4550 C.3     1  UNL1        0.0968
     17 C         137.5306  140.4785  162.2760 C.3     1  UNL1        0.0685
     18 N         136.6647  141.3815  163.1035 N.3     1  UNL1       -0.3210
     19 H         137.2243  142.1562  163.4600 H       1  UNL1        0.1189
     20 H         136.2748  140.8555  163.8857 H       1  UNL1        0.1189
     21 C         142.0384  144.1814  162.2850 C.ar    1  UNL1        0.1347
     22 C         142.9383  145.1322  163.0171 C.ar    1  UNL1        0.0238
     23 C         143.7152  144.6610  164.2106 C.ar    1  UNL1        0.0032
     24 C         143.5922  143.2390  164.6719 C.ar    1  UNL1        0.0192
     25 C         142.6923  142.2882  163.9397 C.ar    1  UNL1        0.0816
     26 N         141.9154  142.7594  162.7462 N.ar    1  UNL1       -0.2408
     27 C         142.5693  140.8662  164.4010 C.ar    1  UNL1        0.0220
     28 C         143.4328  140.3632  165.5196 C.ar    1  UNL1        0.0223
     29 C         143.3098  138.9412  165.9808 C.ar    1  UNL1        0.1003
     30 N         142.3233  138.0222  165.3235 N.ar    1  UNL1       -0.2294
     31 C         141.4597  138.5252  164.2049 C.ar    1  UNL1        0.1286
     32 C         141.5827  139.9472  163.7437 C.ar    1  UNL1        0.0356
     33 N         140.4731  137.6061  163.5476 N.pl3   1  UNL1       -0.3181
     34 H         140.7518  137.0488  162.7854 H       1  UNL1        0.1482
     35 C         139.0621  137.5364  164.0516 C.3     1  UNL1        0.0881
     36 C         138.6370  138.3870  165.2115 C.3     1  UNL1        0.0196
     37 C         138.0461  138.5098  166.5848 C.3     1  UNL1        0.0017
     38 C         138.4917  139.7377  165.8475 C.3     1  UNL1        0.0017
@<TRIPOS>BOND
     1     5     6    1
     2     6     7   ar
     3     7     8   ar
     4     8     1    1
     5     1     2   am
     6     2     3    2
     7     2    21    1
     8    21    22   ar
     9    22    23   ar
    10    23    24   ar
    11    24    25   ar
    12    25    27    1
    13    27    28   ar
    14    28    29   ar
    15    29    30   ar
    16    30    31   ar
    17    31    33    1
    18    33    35    1
    19    35    36    1
    20    36    37    1
    21    37    38    1
    22    31    32   ar
    23    25    26   ar
    24     8     9   ar
    25     9    11    1
    26    11    12    2
    27    11    13   am
    28    13    14    1
    29    14    15    1
    30    15    17    1
    31    17    18    1
    32    15    16    1
    33     9    10   ar
    34    10     6   ar
    35    26    21   ar
    36    16    13    1
    37    32    27   ar
    38    38    36    1
    39     1     4    1
    40    33    34    1
    41    18    19    1
    42    18    20    1
@<TRIPOS>MOLECULE
*****
 38 42 0 0 0
SMALL
GASTEIGER

@<TRIPOS>ATOM
      1 N         141.8602  142.0400  160.0834 N.am    1  UNL1       -0.2766
      2 C         142.1861  143.0234  161.1681 C.2     1  UNL1        0.2673
      3 O         143.5030  143.7415  161.1586 O.2     1  UNL1       -0.2682
      4 H         140.9958  141.5687  160.0897 H       1  UNL1        0.1553
      5 C         144.9497  142.6626  155.8468 C.3     1  UNL1        0.1538
      6 N         144.2713  142.0609  157.0417 N.ar    1  UNL1       -0.2459
      7 C         143.2640  142.7424  157.9198 C.ar    1  UNL1        0.1115
      8 C         142.8512  141.7747  158.9890 C.ar    1  UNL1        0.0937
      9 C         143.6032  140.4952  158.7717 C.ar    1  UNL1        0.1690
     10 N         144.4809  140.6721  157.5682 N.ar    1  UNL1       -0.1632
     11 C         143.4964  139.2564  159.6106 C.2     1  UNL1        0.2698
     12 O         143.0119  137.9755  158.9986 O.2     1  UNL1       -0.2681
     13 N         143.8740  139.2984  161.0617 N.am    1  UNL1       -0.2746
     14 C         143.8996  138.2995  162.1804 C.3     1  UNL1        0.0968
     15 C         144.4081  139.3579  163.1139 C.3     1  UNL1        0.0552
     16 C         144.3825  140.3568  161.9951 C.3     1  UNL1        0.0968
     17 C         144.7857  139.3999  164.5649 C.3     1  UNL1        0.0685
     18 N         143.9049  138.7468  165.5884 N.3     1  UNL1       -0.3210
     19 H         143.0113  139.2368  165.6303 H       1  UNL1        0.1189
     20 H         144.3576  138.7864  166.5016 H       1  UNL1        0.1189
     21 C         141.1951  143.2887  162.2625 C.ar    1  UNL1        0.1347
     22 C         140.6159  144.6618  162.4332 C.ar    1  UNL1        0.0238
     23 C         139.6250  144.9270  163.5275 C.ar    1  UNL1        0.0032
     24 C         139.2133  143.8192  164.4512 C.ar    1  UNL1        0.0192
     25 C         139.7925  142.4462  164.2806 C.ar    1  UNL1        0.0816
     26 N         140.7834  142.1809  163.1862 N.ar    1  UNL1       -0.2408
     27 C         139.3807  141.3383  165.2043 C.ar    1  UNL1        0.0220
     28 C         138.4205  140.2868  164.7330 C.ar    1  UNL1        0.0223
     29 C         138.0088  139.1790  165.6567 C.ar    1  UNL1        0.1003
     30 N         138.5572  139.1227  167.0517 N.ar    1  UNL1       -0.2294
     31 C         139.5175  140.1743  167.5229 C.ar    1  UNL1        0.1286
     32 C         139.9292  141.2821  166.5992 C.ar    1  UNL1        0.0356
     33 N         140.0660  140.1181  168.9180 N.pl3   1  UNL1       -0.3181
     34 H         140.6710  139.3869  169.1799 H       1  UNL1        0.1482
     35 C         139.6927  141.1759  169.9138 C.3     1  UNL1        0.0881
     36 C         140.4229  142.4862  169.9253 C.3     1  UNL1        0.0196
     37 C         140.4046  143.9841  169.8494 C.3     1  UNL1        0.0017
     38 C         141.7056  143.2576  170.0212 C.3     1  UNL1        0.0017
@<TRIPOS>BOND
     1     5     6    1
     2     6     7   ar
     3     7     8   ar
     4     8     1    1
     5     1     2   am
     6     2     3    2
     7     2    21    1
     8    21    22   ar
     9    22    23   ar
    10    23    24   ar
    11    24    25   ar
    12    25    27    1
    13    27    28   ar
    14    28    29   ar
    15    29    30   ar
    16    30    31   ar
    17    31    33    1
    18    33    35    1
    19    35    36    1
    20    36    37    1
    21    37    38    1
    22    31    32   ar
    23    25    26   ar
    24     8     9   ar
    25     9    11    1
    26    11    12    2
    27    11    13   am
    28    13    14    1
    29    14    15    1
    30    15    17    1
    31    17    18    1
    32    15    16    1
    33     9    10   ar
    34    10     6   ar
    35    26    21   ar
    36    16    13    1
    37    32    27   ar
    38    38    36    1
    39     1     4    1
    40    33    34    1
    41    18    19    1
    42    18    20    1
@<TRIPOS>MOLECULE
*****
 38 42 0 0 0
SMALL
GASTEIGER

@<TRIPOS>ATOM
      1 N         140.8315  139.9776  161.7780 N.am    1  UNL1       -0.2766
      2 C         141.4014  139.5838  163.1084 C.2     1  UNL1        0.2673
      3 O         142.8376  139.1641  163.2145 O.2     1  UNL1       -0.2682
      4 H         139.8889  140.2531  161.7083 H       1  UNL1        0.1553
      5 C         142.9525  138.5561  157.1561 C.3     1  UNL1        0.1538
      6 N         142.6726  139.2983  158.4291 N.ar    1  UNL1       -0.2459
      7 C         141.6275  138.9437  159.4451 C.ar    1  UNL1        0.1115
      8 C         141.6978  139.9518  160.5536 C.ar    1  UNL1        0.0937
      9 C         142.7863  140.9294  160.2229 C.ar    1  UNL1        0.1690
     10 N         143.3888  140.5256  158.9099 N.ar    1  UNL1       -0.1632
     11 C         143.1996  142.1045  161.0584 C.2     1  UNL1        0.2698
     12 O         144.6162  142.2230  161.5374 O.2     1  UNL1       -0.2681
     13 N         142.1965  143.1611  161.4151 N.am    1  UNL1       -0.2746
     14 C         142.2341  144.4364  162.2039 C.3     1  UNL1        0.0968
     15 C         140.7777  144.6554  161.9195 C.3     1  UNL1        0.0552
     16 C         140.7401  143.3801  161.1306 C.3     1  UNL1        0.0968
     17 C         139.7745  145.7120  162.2761 C.3     1  UNL1        0.0685
     18 N         139.1345  146.5334  161.1965 N.3     1  UNL1       -0.3210
     19 H         139.8420  147.1146  160.7469 H       1  UNL1        0.1189
     20 H         138.4141  147.1292  161.6045 H       1  UNL1        0.1189
     21 C         140.5352  139.6096  164.3327 C.ar    1  UNL1        0.1347
     22 C         139.0759  139.2796  164.2261 C.ar    1  UNL1        0.0238
     23 C         138.2097  139.3055  165.4504 C.ar    1  UNL1        0.0032
     24 C         138.8029  139.6613  166.7814 C.ar    1  UNL1        0.0192
     25 C         140.2622  139.9913  166.8881 C.ar    1  UNL1        0.0816
     26 N         141.1283  139.9655  165.6637 N.ar    1  UNL1       -0.2408
     27 C         140.8553  140.3472  168.2191 C.ar    1  UNL1        0.0220
     28 C         140.4456  141.6150  168.9080 C.ar    1  UNL1        0.0223
     29 C         141.0387  141.9708  170.2389 C.ar    1  UNL1        0.1003
     30 N         142.0417  141.0588  170.8810 N.ar    1  UNL1       -0.2294
     31 C         142.4514  139.7910  170.1921 C.ar    1  UNL1        0.1286
     32 C         141.8583  139.4352  168.8612 C.ar    1  UNL1        0.0356
     33 N         143.4544  138.8789  170.8342 N.pl3   1  UNL1       -0.3181
     34 H         144.1430  139.2482  171.4332 H       1  UNL1        0.1482
     35 C         143.4082  137.4042  170.5637 C.3     1  UNL1        0.0881
     36 C         144.3767  136.4855  171.2477 C.3     1  UNL1        0.0196
     37 C         145.5437  136.2796  172.1674 C.3     1  UNL1        0.0017
     38 C         144.8872  135.1003  171.5130 C.3     1  UNL1        0.0017
@<TRIPOS>BOND
     1     5     6    1
     2     6     7   ar
     3     7     8   ar
     4     8     1    1
     5     1     2   am
     6     2     3    2
     7     2    21    1
     8    21    22   ar
     9    22    23   ar
    10    23    24   ar
    11    24    25   ar
    12    25    27    1
    13    27    28   ar
    14    28    29   ar
    15    29    30   ar
    16    30    31   ar
    17    31    33    1
    18    33    35    1
    19    35    36    1
    20    36    37    1
    21    37    38    1
    22    31    32   ar
    23    25    26   ar
    24     8     9   ar
    25     9    11    1
    26    11    12    2
    27    11    13   am
    28    13    14    1
    29    14    15    1
    30    15    17    1
    31    17    18    1
    32    15    16    1
    33     9    10   ar
    34    10     6   ar
    35    26    21   ar
    36    16    13    1
    37    32    27   ar
    38    38    36    1
    39     1     4    1
    40    33    34    1
    41    18    19    1
    42    18    20    1
@<TRIPOS>MOLECULE
*****
 38 42 0 0 0
SMALL
GASTEIGER

@<TRIPOS>ATOM
      1 N         142.6965  140.3492  160.6807 N.am    1  UNL1       -0.2766
      2 C         141.2144  140.1238  160.6314 C.2     1  UNL1        0.2673
      3 O         140.4234  140.5930  159.4465 O.2     1  UNL1       -0.2682
      4 H         143.2156  140.0412  161.4585 H       1  UNL1        0.1553
      5 C         145.3586  141.2293  156.2063 C.3     1  UNL1        0.1538
      6 N         144.6113  141.4484  157.4884 N.ar    1  UNL1       -0.2459
      7 C         144.0528  140.3771  158.3775 C.ar    1  UNL1        0.1115
      8 C         143.3877  141.0439  159.5450 C.ar    1  UNL1        0.0937
      9 C         143.5351  142.5272  159.3774 C.ar    1  UNL1        0.1690
     10 N         144.2913  142.7772  158.1064 N.ar    1  UNL1       -0.1632
     11 C         143.0171  143.5762  160.3161 C.2     1  UNL1        0.2698
     12 O         142.0647  144.6231  159.8192 O.2     1  UNL1       -0.2681
     13 N         143.4515  143.5784  161.7519 N.am    1  UNL1       -0.2746
     14 C         143.1585  144.4355  162.9475 C.3     1  UNL1        0.0968
     15 C         144.0659  143.5814  163.7823 C.3     1  UNL1        0.0552
     16 C         144.3590  142.7242  162.5867 C.3     1  UNL1        0.0968
     17 C         144.5004  143.5835  165.2180 C.3     1  UNL1        0.0685
     18 N         143.7950  142.7142  166.2163 N.3     1  UNL1       -0.3210
     19 H         142.8337  143.0363  166.3284 H       1  UNL1        0.1189
     20 H         144.2777  142.7659  167.1133 H       1  UNL1        0.1189
     21 C         140.5232  139.4291  161.7671 C.ar    1  UNL1        0.1347
     22 C         139.3817  138.4957  161.4921 C.ar    1  UNL1        0.0238
     23 C         138.6906  137.8011  162.6278 C.ar    1  UNL1        0.0032
     24 C         139.1409  138.0399  164.0385 C.ar    1  UNL1        0.0192
     25 C         140.2824  138.9733  164.3135 C.ar    1  UNL1        0.0816
     26 N         140.9736  139.6679  163.1779 N.ar    1  UNL1       -0.2408
     27 C         140.7328  139.2121  165.7243 C.ar    1  UNL1        0.0220
     28 C         142.1815  139.0648  166.0841 C.ar    1  UNL1        0.0223
     29 C         142.6319  139.3036  167.4949 C.ar    1  UNL1        0.1003
     30 N         141.6336  139.6896  168.5457 N.ar    1  UNL1       -0.2294
     31 C         140.1849  139.8368  168.1858 C.ar    1  UNL1        0.1286
     32 C         139.7345  139.5981  166.7751 C.ar    1  UNL1        0.0356
     33 N         139.1865  140.2229  169.2367 N.pl3   1  UNL1       -0.3181
     34 H         138.2739  139.8548  169.2075 H       1  UNL1        0.1482
     35 C         139.5787  141.1697  170.3320 C.3     1  UNL1        0.0881
     36 C         140.3139  142.4348  170.0023 C.3     1  UNL1        0.0196
     37 C         141.5759  143.1350  169.5936 C.3     1  UNL1        0.0017
     38 C         140.3255  143.9259  169.8398 C.3     1  UNL1        0.0017
@<TRIPOS>BOND
     1     5     6    1
     2     6     7   ar
     3     7     8   ar
     4     8     1    1
     5     1     2   am
     6     2     3    2
     7     2    21    1
     8    21    22   ar
     9    22    23   ar
    10    23    24   ar
    11    24    25   ar
    12    25    27    1
    13    27    28   ar
    14    28    29   ar
    15    29    30   ar
    16    30    31   ar
    17    31    33    1
    18    33    35    1
    19    35    36    1
    20    36    37    1
    21    37    38    1
    22    31    32   ar
    23    25    26   ar
    24     8     9   ar
    25     9    11    1
    26    11    12    2
    27    11    13   am
    28    13    14    1
    29    14    15    1
    30    15    17    1
    31    17    18    1
    32    15    16    1
    33     9    10   ar
    34    10     6   ar
    35    26    21   ar
    36    16    13    1
    37    32    27   ar
    38    38    36    1
    39     1     4    1
    40    33    34    1
    41    18    19    1
    42    18    20    1
@<TRIPOS>MOLECULE
*****
 38 42 0 0 0
SMALL
GASTEIGER

@<TRIPOS>ATOM
      1 N         143.3834  141.4762  160.7591 N.am    1  UNL1       -0.2766
      2 C         143.8962  140.7807  161.9852 C.2     1  UNL1        0.2673
      3 O         144.7013  139.5221  161.8521 O.2     1  UNL1       -0.2682
      4 H         142.8549  142.3022  160.8465 H       1  UNL1        0.1553
      5 C         145.2514  140.9119  155.8526 C.3     1  UNL1        0.1538
      6 N         144.5344  140.6537  157.1446 N.ar    1  UNL1       -0.2459
      7 C         144.5089  141.5646  158.3362 C.ar    1  UNL1        0.1115
      8 C         143.6757  140.9130  159.3998 C.ar    1  UNL1        0.0937
      9 C         143.1862  139.5997  158.8657 C.ar    1  UNL1        0.1690
     10 N         143.7168  139.4394  157.4719 N.ar    1  UNL1       -0.1632
     11 C         142.3184  138.6188  159.5970 C.2     1  UNL1        0.2698
     12 O         142.8684  137.2809  159.9936 O.2     1  UNL1       -0.2681
     13 N         140.9004  138.9759  159.9316 N.am    1  UNL1       -0.2746
     14 C         139.7680  138.2819  160.6288 C.3     1  UNL1        0.0968
     15 C         138.8952  139.4811  160.4049 C.3     1  UNL1        0.0552
     16 C         140.0276  140.1751  159.7078 C.3     1  UNL1        0.0968
     17 C         137.4773  139.8382  160.7395 C.3     1  UNL1        0.0685
     18 N         137.1828  140.7066  161.9266 N.3     1  UNL1       -0.3210
     19 H         137.4407  140.2131  162.7812 H       1  UNL1        0.1189
     20 H         136.1870  140.9265  161.9484 H       1  UNL1        0.1189
     21 C         143.6038  141.3439  163.3444 C.ar    1  UNL1        0.1347
     22 C         144.3962  142.5084  163.8601 C.ar    1  UNL1        0.0238
     23 C         144.1039  143.0715  165.2193 C.ar    1  UNL1        0.0032
     24 C         143.0191  142.4700  166.0628 C.ar    1  UNL1        0.0192
     25 C         142.2268  141.3055  165.5472 C.ar    1  UNL1        0.0816
     26 N         142.5191  140.7424  164.1880 N.ar    1  UNL1       -0.2408
     27 C         141.1420  140.7040  166.3907 C.ar    1  UNL1        0.0220
     28 C         139.8528  140.2711  165.7579 C.ar    1  UNL1        0.0223
     29 C         138.7681  139.6697  166.6015 C.ar    1  UNL1        0.1003
     30 N         138.9725  139.5011  168.0778 N.ar    1  UNL1       -0.2294
     31 C         140.2617  139.9340  168.7107 C.ar    1  UNL1        0.1286
     32 C         141.3465  140.5355  167.8671 C.ar    1  UNL1        0.0356
     33 N         140.4662  139.7655  170.1871 N.pl3   1  UNL1       -0.3181
     34 H         140.5711  138.8645  170.5699 H       1  UNL1        0.1482
     35 C         140.5109  140.9697  171.0804 C.3     1  UNL1        0.0881
     36 C         140.8603  142.3129  170.5115 C.3     1  UNL1        0.0196
     37 C         141.8898  143.3405  170.1449 C.3     1  UNL1        0.0017
     38 C         140.4363  143.6118  169.8927 C.3     1  UNL1        0.0017
@<TRIPOS>BOND
     1     5     6    1
     2     6     7   ar
     3     7     8   ar
     4     8     1    1
     5     1     2   am
     6     2     3    2
     7     2    21    1
     8    21    22   ar
     9    22    23   ar
    10    23    24   ar
    11    24    25   ar
    12    25    27    1
    13    27    28   ar
    14    28    29   ar
    15    29    30   ar
    16    30    31   ar
    17    31    33    1
    18    33    35    1
    19    35    36    1
    20    36    37    1
    21    37    38    1
    22    31    32   ar
    23    25    26   ar
    24     8     9   ar
    25     9    11    1
    26    11    12    2
    27    11    13   am
    28    13    14    1
    29    14    15    1
    30    15    17    1
    31    17    18    1
    32    15    16    1
    33     9    10   ar
    34    10     6   ar
    35    26    21   ar
    36    16    13    1
    37    32    27   ar
    38    38    36    1
    39     1     4    1
    40    33    34    1
    41    18    19    1
    42    18    20    1
