@<TRIPOS>MOLECULE
*****
 35 38 0 0 0
SMALL
GASTEIGER

@<TRIPOS>ATOM
      1 C         139.2687  141.0349  162.6245 C.2     1  UNL1        0.1397
      2 C         140.0080  141.9285  161.6733 C.2     1  UNL1        0.1355
      3 N         141.4912  142.1058  161.8099 N.pl3   1  UNL1       -0.1998
      4 C         142.2351  141.3894  162.8977 C.2     1  UNL1        0.3442
      5 N         141.4959  140.4958  163.8489 N.2     1  UNL1       -0.0580
      6 C         140.0126  140.3185  163.7123 C.3     1  UNL1        0.2695
      7 H         141.9764  142.6923  161.1856 H       1  UNL1        0.2983
      8 C         139.2734  139.4248  164.6635 C.ar    1  UNL1        0.0415
      9 C         138.6996  139.9884  165.9297 C.ar    1  UNL1        0.0034
     10 C         137.9604  139.0948  166.8810 C.ar    1  UNL1        0.0295
     11 C         137.7948  137.6375  166.5660 C.ar    1  UNL1        0.1410
     12 F         137.0556  136.7439  167.5173 F       1  UNL1       -0.2041
     13 C         138.3686  137.0740  165.2999 C.ar    1  UNL1        0.0408
     14 C         139.1078  137.9677  164.3486 C.ar    1  UNL1        0.0603
     15 CL        139.6816  137.4041  163.0824 Cl      1  UNL1       -0.0824
     16 C         143.7184  141.5667  163.0343 C.ar    1  UNL1        0.1931
     17 N         144.5466  141.1807  164.2238 N.ar    1  UNL1       -0.2297
     18 C         145.9739  141.5365  163.9300 C.ar    1  UNL1        0.1067
     19 C         146.0278  142.1425  162.5589 C.ar    1  UNL1        0.0577
     20 S         144.6338  142.1611  162.0054 S.2     1  UNL1       -0.0586
     21 C         137.7855  140.8576  162.4879 C.2     1  UNL1        0.3447
     22 O         137.2373  139.7029  161.7030 O.2     1  UNL1       -0.2450
     23 O         136.8505  141.8351  163.1361 O.3     1  UNL1       -0.4455
     24 C         137.7423  144.2365  163.5696 C.3     1  UNL1        0.0513
     25 C         137.3850  142.8717  164.0793 C.3     1  UNL1        0.2089
     26 C         139.2641  142.6450  160.5854 C.3     1  UNL1        0.1407
     27 N         140.0201  143.3441  159.4947 N.3     1  UNL1       -0.2584
     28 C         140.2790  142.6437  158.1938 C.3     1  UNL1        0.1052
     29 C         141.0351  143.3430  157.1031 C.3     1  UNL1        0.1595
     30 O         141.5321  144.7425  157.3133 O.3     1  UNL1       -0.3505
     31 C         141.2731  145.4429  158.6142 C.3     1  UNL1        0.1637
     32 C         140.5171  144.7437  159.7049 C.3     1  UNL1        0.1247
     33 C         140.2582  145.4441  161.0059 C.2     1  UNL1        0.0673
     34 O         139.1276  146.4235  161.1183 O.co2   1  UNL1       -0.5477
     35 O         141.1298  145.1651  162.1943 O.co2   1  UNL1       -0.5477
@<TRIPOS>UNITY_ATOM_ATTR
34 1
charge -1
@<TRIPOS>BOND
     1    24    25    1
     2    25    23    1
     3    23    21    1
     4    21    22    2
     5    21     1    1
     6     1     2    2
     7     2    26    1
     8    26    27    1
     9    27    28    1
    10    28    29    1
    11    29    30    1
    12    30    31    1
    13    31    32    1
    14    32    33    1
    15    33    34   ar
    16    33    35   ar
    17     2     3    1
    18     3     4    1
    19     4    16    1
    20    16    17   ar
    21    17    18   ar
    22    18    19   ar
    23    19    20   ar
    24     4     5    2
    25     5     6    1
    26     6     8    1
    27     8     9   ar
    28     9    10   ar
    29    10    11   ar
    30    11    12    1
    31    11    13   ar
    32    13    14   ar
    33    14    15    1
    34     6     1    1
    35    14     8   ar
    36    32    27    1
    37    20    16   ar
    38     3     7    1
@<TRIPOS>MOLECULE
*****
 35 38 0 0 0
SMALL
GASTEIGER

@<TRIPOS>ATOM
      1 C         141.0217  140.3680  164.7059 C.2     1  UNL1        0.1397
      2 C         140.7864  140.2635  163.2281 C.2     1  UNL1        0.1355
      3 N         140.5574  141.5034  162.4156 N.pl3   1  UNL1       -0.1998
      4 C         140.5637  142.8478  163.0808 C.2     1  UNL1        0.3442
      5 N         140.7990  142.9523  164.5585 N.2     1  UNL1       -0.0580
      6 C         141.0280  141.7124  165.3710 C.3     1  UNL1        0.2695
      7 H         140.4030  141.4348  161.4457 H       1  UNL1        0.2983
      8 C         141.2632  141.8170  166.8488 C.ar    1  UNL1        0.0415
      9 C         140.1530  141.5073  167.8088 C.ar    1  UNL1        0.0034
     10 C         140.3882  141.6118  169.2865 C.ar    1  UNL1        0.0295
     11 C         141.7337  142.0261  169.8043 C.ar    1  UNL1        0.1410
     12 F         141.9689  142.1306  171.2820 F       1  UNL1       -0.2041
     13 C         142.8440  142.3358  168.8444 C.ar    1  UNL1        0.0408
     14 C         142.6087  142.2312  167.3666 C.ar    1  UNL1        0.0603
     15 CL        143.7189  142.5409  166.4067 Cl      1  UNL1       -0.0824
     16 C         140.3348  144.0877  162.2682 C.ar    1  UNL1        0.1931
     17 N         139.6701  145.3447  162.7460 N.ar    1  UNL1       -0.2297
     18 C         139.6548  146.3222  161.6083 C.ar    1  UNL1        0.1067
     19 C         140.3100  145.6694  160.4274 C.ar    1  UNL1        0.0577
     20 S         140.7303  144.2884  160.8353 S.2     1  UNL1       -0.0586
     21 C         141.2506  139.1281  165.5184 C.2     1  UNL1        0.3447
     22 O         142.6382  138.7641  165.9565 O.2     1  UNL1       -0.2450
     23 O         140.0920  138.2522  165.8929 O.3     1  UNL1       -0.4455
     24 C         137.7413  138.6157  166.9379 C.3     1  UNL1        0.0513
     25 C         138.6906  138.7767  165.7877 C.3     1  UNL1        0.2089
     26 C         140.7801  138.9191  162.5629 C.3     1  UNL1        0.1407
     27 N         140.7716  138.8230  161.0660 N.3     1  UNL1       -0.2584
     28 C         142.0535  138.5927  160.3219 C.3     1  UNL1        0.1052
     29 C         142.0449  138.4966  158.8250 C.3     1  UNL1        0.1595
     30 O         140.7545  138.6308  158.0722 O.3     1  UNL1       -0.3505
     31 C         139.4726  138.8612  158.8163 C.3     1  UNL1        0.1637
     32 C         139.4811  138.9573  160.3132 C.3     1  UNL1        0.1247
     33 C         138.1992  139.1876  161.0573 C.2     1  UNL1        0.0673
     34 O         137.6777  140.5823  161.2391 O.co2   1  UNL1       -0.5477
     35 O         137.4387  138.0233  161.6195 O.co2   1  UNL1       -0.5477
@<TRIPOS>UNITY_ATOM_ATTR
34 1
charge -1
@<TRIPOS>BOND
     1    24    25    1
     2    25    23    1
     3    23    21    1
     4    21    22    2
     5    21     1    1
     6     1     2    2
     7     2    26    1
     8    26    27    1
     9    27    28    1
    10    28    29    1
    11    29    30    1
    12    30    31    1
    13    31    32    1
    14    32    33    1
    15    33    34   ar
    16    33    35   ar
    17     2     3    1
    18     3     4    1
    19     4    16    1
    20    16    17   ar
    21    17    18   ar
    22    18    19   ar
    23    19    20   ar
    24     4     5    2
    25     5     6    1
    26     6     8    1
    27     8     9   ar
    28     9    10   ar
    29    10    11   ar
    30    11    12    1
    31    11    13   ar
    32    13    14   ar
    33    14    15    1
    34     6     1    1
    35    14     8   ar
    36    32    27    1
    37    20    16   ar
    38     3     7    1
@<TRIPOS>MOLECULE
*****
 35 38 0 0 0
SMALL
GASTEIGER

@<TRIPOS>ATOM
      1 C         141.0255  140.3006  164.5496 C.2     1  UNL1        0.1397
      2 C         140.8125  140.2166  163.0672 C.2     1  UNL1        0.1355
      3 N         140.5861  141.4668  162.2699 N.pl3   1  UNL1       -0.1998
      4 C         140.5726  142.8011  162.9551 C.2     1  UNL1        0.3442
      5 N         140.7855  142.8851  164.4375 N.2     1  UNL1       -0.0580
      6 C         141.0119  141.6349  165.2347 C.3     1  UNL1        0.2695
      7 H         140.4463  141.4116  161.2970 H       1  UNL1        0.2983
      8 C         141.2249  141.7190  166.7172 C.ar    1  UNL1        0.0415
      9 C         140.1079  141.3715  167.6562 C.ar    1  UNL1        0.0034
     10 C         140.3208  141.4556  169.1386 C.ar    1  UNL1        0.0295
     11 C         141.6507  141.8871  169.6821 C.ar    1  UNL1        0.1410
     12 F         141.8636  141.9712  171.1645 F       1  UNL1       -0.2041
     13 C         142.7676  142.2345  168.7431 C.ar    1  UNL1        0.0408
     14 C         142.5547  142.1504  167.2606 C.ar    1  UNL1        0.0603
     15 CL        143.6717  142.4979  166.3216 Cl      1  UNL1       -0.0824
     16 C         140.3461  144.0513  162.1578 C.ar    1  UNL1        0.1931
     17 N         139.6609  145.2944  162.6429 N.ar    1  UNL1       -0.2297
     18 C         139.6564  146.2894  161.5204 C.ar    1  UNL1        0.1067
     19 C         140.3389  145.6613  160.3416 C.ar    1  UNL1        0.0577
     20 S         140.7652  144.2781  160.7355 S.2     1  UNL1       -0.0586
     21 C         141.2519  139.0504  165.3468 C.2     1  UNL1        0.3447
     22 O         142.6309  138.7059  165.8260 O.2     1  UNL1       -0.2450
     23 O         140.0994  138.1446  165.6649 O.3     1  UNL1       -0.4455
     24 C         137.8101  138.5357  166.8296 C.3     1  UNL1        0.0513
     25 C         138.6966  138.6744  165.6275 C.3     1  UNL1        0.2089
     26 C         140.8260  138.8822  162.3820 C.3     1  UNL1        0.1407
     27 N         140.8994  138.8083  160.8856 N.3     1  UNL1       -0.2584
     28 C         139.6388  138.7501  160.0748 C.3     1  UNL1        0.1052
     29 C         139.7123  138.6762  158.5784 C.3     1  UNL1        0.1595
     30 O         141.0463  138.6603  157.8928 O.3     1  UNL1       -0.3505
     31 C         142.3070  138.7185  158.7036 C.3     1  UNL1        0.1637
     32 C         142.2335  138.7924  160.2000 C.3     1  UNL1        0.1247
     33 C         143.4942  138.8506  161.0108 C.2     1  UNL1        0.0673
     34 O         144.0734  140.1777  161.4026 O.co2   1  UNL1       -0.5477
     35 O         144.1756  137.5817  161.4298 O.co2   1  UNL1       -0.5477
@<TRIPOS>UNITY_ATOM_ATTR
34 1
charge -1
@<TRIPOS>BOND
     1    24    25    1
     2    25    23    1
     3    23    21    1
     4    21    22    2
     5    21     1    1
     6     1     2    2
     7     2    26    1
     8    26    27    1
     9    27    28    1
    10    28    29    1
    11    29    30    1
    12    30    31    1
    13    31    32    1
    14    32    33    1
    15    33    34   ar
    16    33    35   ar
    17     2     3    1
    18     3     4    1
    19     4    16    1
    20    16    17   ar
    21    17    18   ar
    22    18    19   ar
    23    19    20   ar
    24     4     5    2
    25     5     6    1
    26     6     8    1
    27     8     9   ar
    28     9    10   ar
    29    10    11   ar
    30    11    12    1
    31    11    13   ar
    32    13    14   ar
    33    14    15    1
    34     6     1    1
    35    14     8   ar
    36    32    27    1
    37    20    16   ar
    38     3     7    1
@<TRIPOS>MOLECULE
*****
 35 38 0 0 0
SMALL
GASTEIGER

@<TRIPOS>ATOM
      1 C         139.5695  142.0993  163.6926 C.2     1  UNL1        0.1397
      2 C         139.5944  142.0049  162.1958 C.2     1  UNL1        0.1355
      3 N         140.4751  140.9944  161.5225 N.pl3   1  UNL1       -0.1998
      4 C         141.3309  140.0783  162.3461 C.2     1  UNL1        0.3442
      5 N         141.3059  140.1726  163.8429 N.2     1  UNL1       -0.0580
      6 C         140.4252  141.1831  164.5161 C.3     1  UNL1        0.2695
      7 H         140.4914  140.9325  160.5401 H       1  UNL1        0.2983
      8 C         140.4003  141.2775  166.0130 C.ar    1  UNL1        0.0415
      9 C         141.2427  142.3017  166.7140 C.ar    1  UNL1        0.0034
     10 C         141.2178  142.3961  168.2108 C.ar    1  UNL1        0.0295
     11 C         140.3506  141.4662  169.0067 C.ar    1  UNL1        0.1410
     12 F         140.3257  141.5605  170.5034 F       1  UNL1       -0.2041
     13 C         139.5083  140.4419  168.3056 C.ar    1  UNL1        0.0408
     14 C         139.5332  140.3476  166.8088 C.ar    1  UNL1        0.0603
     15 CL        138.6909  139.3233  166.1077 Cl      1  UNL1       -0.0824
     16 C         142.2115  139.0678  161.6728 C.ar    1  UNL1        0.1931
     17 N         141.8813  138.3017  160.4262 N.ar    1  UNL1       -0.2297
     18 C         143.0428  137.4064  160.1109 C.ar    1  UNL1        0.1067
     19 C         144.0909  137.6191  161.1627 C.ar    1  UNL1        0.0577
     20 S         143.5771  138.6459  162.1280 S.2     1  UNL1       -0.0586
     21 C         138.6888  143.1098  164.3658 C.2     1  UNL1        0.3447
     22 O         137.2400  142.8023  164.6032 O.2     1  UNL1       -0.2450
     23 O         139.2568  144.4278  164.8017 O.3     1  UNL1       -0.4455
     24 C         141.6894  144.9020  164.0220 C.3     1  UNL1        0.0513
     25 C         140.2161  145.1620  163.9124 C.3     1  UNL1        0.2089
     26 C         138.7386  142.9211  161.3721 C.3     1  UNL1        0.1407
     27 N         138.9205  142.9816  159.8845 N.3     1  UNL1       -0.2584
     28 C         138.2597  141.9611  159.0059 C.3     1  UNL1        0.1052
     29 C         138.4417  142.0217  157.5181 C.3     1  UNL1        0.1595
     30 O         139.2845  143.1028  156.9091 O.3     1  UNL1       -0.3505
     31 C         139.9453  144.1233  157.7877 C.3     1  UNL1        0.1637
     32 C         139.7634  144.0627  159.2753 C.3     1  UNL1        0.1247
     33 C         140.4242  145.0832  160.1539 C.2     1  UNL1        0.0673
     34 O         139.6253  146.2252  160.7088 O.co2   1  UNL1       -0.5477
     35 O         141.8838  144.9618  160.4776 O.co2   1  UNL1       -0.5477
@<TRIPOS>UNITY_ATOM_ATTR
34 1
charge -1
@<TRIPOS>BOND
     1    24    25    1
     2    25    23    1
     3    23    21    1
     4    21    22    2
     5    21     1    1
     6     1     2    2
     7     2    26    1
     8    26    27    1
     9    27    28    1
    10    28    29    1
    11    29    30    1
    12    30    31    1
    13    31    32    1
    14    32    33    1
    15    33    34   ar
    16    33    35   ar
    17     2     3    1
    18     3     4    1
    19     4    16    1
    20    16    17   ar
    21    17    18   ar
    22    18    19   ar
    23    19    20   ar
    24     4     5    2
    25     5     6    1
    26     6     8    1
    27     8     9   ar
    28     9    10   ar
    29    10    11   ar
    30    11    12    1
    31    11    13   ar
    32    13    14   ar
    33    14    15    1
    34     6     1    1
    35    14     8   ar
    36    32    27    1
    37    20    16   ar
    38     3     7    1
@<TRIPOS>MOLECULE
*****
 35 38 0 0 0
SMALL
GASTEIGER

@<TRIPOS>ATOM
      1 C         139.0034  141.0859  160.5798 C.2     1  UNL1        0.1397
      2 C         138.9694  140.3792  159.2571 C.2     1  UNL1        0.1355
      3 N         138.6987  141.1522  158.0005 N.pl3   1  UNL1       -0.1998
      4 C         138.4619  142.6319  158.0665 C.2     1  UNL1        0.3442
      5 N         138.4959  143.3386  159.3892 N.2     1  UNL1       -0.0580
      6 C         138.7666  142.5655  160.6458 C.3     1  UNL1        0.2695
      7 H         138.6764  140.6884  157.1324 H       1  UNL1        0.2983
      8 C         138.8006  143.2723  161.9685 C.ar    1  UNL1        0.0415
      9 C         137.5953  143.2513  162.8612 C.ar    1  UNL1        0.0034
     10 C         137.6292  143.9580  164.1838 C.ar    1  UNL1        0.0295
     11 C         138.8685  144.6857  164.6138 C.ar    1  UNL1        0.1410
     12 F         138.9024  145.3924  165.9365 F       1  UNL1       -0.2041
     13 C         140.0737  144.7067  163.7211 C.ar    1  UNL1        0.0408
     14 C         140.0398  143.9999  162.3984 C.ar    1  UNL1        0.0603
     15 CL        141.2450  144.0209  161.5058 Cl      1  UNL1       -0.0824
     16 C         138.1912  143.4050  156.8099 C.ar    1  UNL1        0.1931
     17 N         139.0284  144.5242  156.2656 N.ar    1  UNL1       -0.2297
     18 C         138.3903  145.0055  154.9962 C.ar    1  UNL1        0.1067
     19 C         137.1587  144.1836  154.7560 C.ar    1  UNL1        0.0577
     20 S         137.0356  143.1945  155.8769 S.2     1  UNL1       -0.0586
     21 C         139.2742  140.3128  161.8364 C.2     1  UNL1        0.3447
     22 O         140.6321  140.3653  162.4714 O.2     1  UNL1       -0.2450
     23 O         138.1870  139.4873  162.4581 O.3     1  UNL1       -0.4455
     24 C         138.9797  137.7070  164.1763 C.3     1  UNL1        0.0513
     25 C         138.4460  138.0544  162.8181 C.3     1  UNL1        0.2089
     26 C         139.2062  138.8994  159.1911 C.3     1  UNL1        0.1407
     27 N         140.5237  138.3716  158.7057 N.3     1  UNL1       -0.2584
     28 C         141.6803  138.2553  159.6538 C.3     1  UNL1        0.1052
     29 C         142.9978  137.7275  159.1684 C.3     1  UNL1        0.1595
     30 O         143.1588  137.3160  157.7350 O.3     1  UNL1       -0.3505
     31 C         142.0022  137.4324  156.7869 C.3     1  UNL1        0.1637
     32 C         140.6847  137.9601  157.2723 C.3     1  UNL1        0.1247
     33 C         139.5282  138.0765  156.3242 C.2     1  UNL1        0.0673
     34 O         139.2271  139.3904  155.6660 O.co2   1  UNL1       -0.5477
     35 O         138.6727  136.8790  156.0342 O.co2   1  UNL1       -0.5477
@<TRIPOS>UNITY_ATOM_ATTR
34 1
charge -1
@<TRIPOS>BOND
     1    24    25    1
     2    25    23    1
     3    23    21    1
     4    21    22    2
     5    21     1    1
     6     1     2    2
     7     2    26    1
     8    26    27    1
     9    27    28    1
    10    28    29    1
    11    29    30    1
    12    30    31    1
    13    31    32    1
    14    32    33    1
    15    33    34   ar
    16    33    35   ar
    17     2     3    1
    18     3     4    1
    19     4    16    1
    20    16    17   ar
    21    17    18   ar
    22    18    19   ar
    23    19    20   ar
    24     4     5    2
    25     5     6    1
    26     6     8    1
    27     8     9   ar
    28     9    10   ar
    29    10    11   ar
    30    11    12    1
    31    11    13   ar
    32    13    14   ar
    33    14    15    1
    34     6     1    1
    35    14     8   ar
    36    32    27    1
    37    20    16   ar
    38     3     7    1
@<TRIPOS>MOLECULE
*****
 35 38 0 0 0
SMALL
GASTEIGER

@<TRIPOS>ATOM
      1 C         140.6721  139.6412  164.1878 C.2     1  UNL1        0.1397
      2 C         140.6959  139.7585  162.6926 C.2     1  UNL1        0.1355
      3 N         140.5715  141.1053  162.0439 N.pl3   1  UNL1       -0.1998
      4 C         140.4233  142.3347  162.8904 C.2     1  UNL1        0.3442
      5 N         140.3995  142.2173  164.3856 N.2     1  UNL1       -0.0580
      6 C         140.5239  140.8706  165.0343 C.3     1  UNL1        0.2695
      7 H         140.5872  141.1823  161.0626 H       1  UNL1        0.2983
      8 C         140.5001  140.7533  166.5295 C.ar    1  UNL1        0.0415
      9 C         139.3086  140.1540  167.2159 C.ar    1  UNL1        0.0034
     10 C         139.2847  140.0367  168.7111 C.ar    1  UNL1        0.0295
     11 C         140.4525  140.5186  169.5200 C.ar    1  UNL1        0.1410
     12 F         140.4286  140.4013  171.0152 F       1  UNL1       -0.2041
     13 C         141.6440  141.1179  168.8336 C.ar    1  UNL1        0.0408
     14 C         141.6678  141.2352  167.3383 C.ar    1  UNL1        0.0603
     15 CL        142.8594  141.8344  166.6520 Cl      1  UNL1       -0.0824
     16 C         140.2989  143.6814  162.2417 C.ar    1  UNL1        0.1931
     17 N         140.8539  144.0701  160.9035 N.ar    1  UNL1       -0.2297
     18 C         140.4957  145.5049  160.6521 C.ar    1  UNL1        0.1067
     19 C         139.7193  146.0029  161.8349 C.ar    1  UNL1        0.0577
     20 S         139.5977  144.8760  162.8174 S.2     1  UNL1       -0.0586
     21 C         140.7965  138.2944  164.8365 C.2     1  UNL1        0.3447
     22 O         139.5664  137.5567  165.2750 O.2     1  UNL1       -0.2450
     23 O         142.1511  137.6854  165.0466 O.3     1  UNL1       -0.4455
     24 C         144.2238  139.1835  164.5888 C.3     1  UNL1        0.0513
     25 C         143.2820  138.5291  165.5557 C.3     1  UNL1        0.2089
     26 C         140.8441  138.5291  161.8460 C.3     1  UNL1        0.1407
     27 N         141.0714  138.6585  160.3690 N.3     1  UNL1       -0.2584
     28 C         139.9062  138.6240  159.4250 C.3     1  UNL1        0.1052
     29 C         140.1336  138.7534  157.9480 C.3     1  UNL1        0.1595
     30 O         141.5261  138.9172  157.4150 O.3     1  UNL1       -0.3505
     31 C         142.6912  138.9517  158.3590 C.3     1  UNL1        0.1637
     32 C         142.4640  138.8223  159.8360 C.3     1  UNL1        0.1247
     33 C         143.6292  138.8567  160.7800 C.2     1  UNL1        0.0673
     34 O         144.1977  137.5765  161.3167 O.co2   1  UNL1       -0.5477
     35 O         144.2258  140.1713  161.1873 O.co2   1  UNL1       -0.5477
@<TRIPOS>UNITY_ATOM_ATTR
34 1
charge -1
@<TRIPOS>BOND
     1    24    25    1
     2    25    23    1
     3    23    21    1
     4    21    22    2
     5    21     1    1
     6     1     2    2
     7     2    26    1
     8    26    27    1
     9    27    28    1
    10    28    29    1
    11    29    30    1
    12    30    31    1
    13    31    32    1
    14    32    33    1
    15    33    34   ar
    16    33    35   ar
    17     2     3    1
    18     3     4    1
    19     4    16    1
    20    16    17   ar
    21    17    18   ar
    22    18    19   ar
    23    19    20   ar
    24     4     5    2
    25     5     6    1
    26     6     8    1
    27     8     9   ar
    28     9    10   ar
    29    10    11   ar
    30    11    12    1
    31    11    13   ar
    32    13    14   ar
    33    14    15    1
    34     6     1    1
    35    14     8   ar
    36    32    27    1
    37    20    16   ar
    38     3     7    1
@<TRIPOS>MOLECULE
*****
 35 38 0 0 0
SMALL
GASTEIGER

@<TRIPOS>ATOM
      1 C         141.2966  139.7254  164.0682 C.2     1  UNL1        0.1397
      2 C         141.5320  139.9448  162.6031 C.2     1  UNL1        0.1355
      3 N         141.2571  141.2868  161.9920 N.pl3   1  UNL1       -0.1998
      4 C         140.7468  142.4094  162.8460 C.2     1  UNL1        0.3442
      5 N         140.5114  142.1900  164.3110 N.2     1  UNL1       -0.0580
      6 C         140.7863  140.8480  164.9221 C.3     1  UNL1        0.2695
      7 H         141.4117  141.4308  161.0305 H       1  UNL1        0.2983
      8 C         140.5509  140.6287  166.3872 C.ar    1  UNL1        0.0415
      9 C         141.6163  140.9878  167.3801 C.ar    1  UNL1        0.0034
     10 C         141.3810  140.7685  168.8451 C.ar    1  UNL1        0.0295
     11 C         140.0800  140.1900  169.3174 C.ar    1  UNL1        0.1410
     12 F         139.8446  139.9706  170.7825 F       1  UNL1       -0.2041
     13 C         139.0145  139.8308  168.3246 C.ar    1  UNL1        0.0408
     14 C         139.2500  140.0502  166.8594 C.ar    1  UNL1        0.0603
     15 CL        138.1845  139.6910  165.8666 Cl      1  UNL1       -0.0824
     16 C         140.4720  143.7515  162.2349 C.ar    1  UNL1        0.1931
     17 N         139.8706  144.9331  162.9363 N.ar    1  UNL1       -0.2297
     18 C         139.7771  146.0594  161.9500 C.ar    1  UNL1        0.1067
     19 C         140.3208  145.5738  160.6390 C.ar    1  UNL1        0.0577
     20 S         140.7502  144.1475  160.8151 S.2     1  UNL1       -0.0586
     21 C         141.5715  138.3834  164.6792 C.2     1  UNL1        0.3447
     22 O         140.4716  137.3694  164.7881 O.2     1  UNL1       -0.2450
     23 O         142.9463  138.0554  165.1815 O.3     1  UNL1       -0.4455
     24 C         144.9465  139.4164  164.2345 C.3     1  UNL1        0.0513
     25 C         143.9671  139.1433  165.3374 C.3     1  UNL1        0.2089
     26 C         142.0423  138.8221  161.7491 C.3     1  UNL1        0.1407
     27 N         141.6302  138.7275  160.3099 N.3     1  UNL1       -0.2584
     28 C         142.6731  138.6388  159.2354 C.3     1  UNL1        0.1052
     29 C         142.2609  138.5441  157.7962 C.3     1  UNL1        0.1595
     30 O         140.8059  138.5382  157.4316 O.3     1  UNL1       -0.3505
     31 C         139.7630  138.6269  158.5061 C.3     1  UNL1        0.1637
     32 C         140.1752  138.7215  159.9453 C.3     1  UNL1        0.1247
     33 C         139.1323  138.8102  161.0198 C.2     1  UNL1        0.0673
     34 O         138.8508  137.6224  161.8916 O.co2   1  UNL1       -0.5477
     35 O         138.3710  140.0866  161.2225 O.co2   1  UNL1       -0.5477
@<TRIPOS>UNITY_ATOM_ATTR
34 1
charge -1
@<TRIPOS>BOND
     1    24    25    1
     2    25    23    1
     3    23    21    1
     4    21    22    2
     5    21     1    1
     6     1     2    2
     7     2    26    1
     8    26    27    1
     9    27    28    1
    10    28    29    1
    11    29    30    1
    12    30    31    1
    13    31    32    1
    14    32    33    1
    15    33    34   ar
    16    33    35   ar
    17     2     3    1
    18     3     4    1
    19     4    16    1
    20    16    17   ar
    21    17    18   ar
    22    18    19   ar
    23    19    20   ar
    24     4     5    2
    25     5     6    1
    26     6     8    1
    27     8     9   ar
    28     9    10   ar
    29    10    11   ar
    30    11    12    1
    31    11    13   ar
    32    13    14   ar
    33    14    15    1
    34     6     1    1
    35    14     8   ar
    36    32    27    1
    37    20    16   ar
    38     3     7    1
@<TRIPOS>MOLECULE
*****
 35 38 0 0 0
SMALL
GASTEIGER

@<TRIPOS>ATOM
      1 C         139.1866  140.9143  160.8435 C.2     1  UNL1        0.1397
      2 C         139.2080  140.1676  159.5428 C.2     1  UNL1        0.1355
      3 N         138.8689  140.8766  158.2652 N.pl3   1  UNL1       -0.1998
      4 C         138.5083  142.3324  158.2883 C.2     1  UNL1        0.3442
      5 N         138.4868  143.0792  159.5891 N.2     1  UNL1       -0.0580
      6 C         138.8259  142.3701  160.8666 C.3     1  UNL1        0.2695
      7 H         138.8830  140.3865  157.4115 H       1  UNL1        0.2983
      8 C         138.8045  143.1169  162.1674 C.ar    1  UNL1        0.0415
      9 C         137.5862  143.0667  163.0410 C.ar    1  UNL1        0.0034
     10 C         137.5646  143.8135  164.3417 C.ar    1  UNL1        0.0295
     11 C         138.7615  144.6105  164.7688 C.ar    1  UNL1        0.1410
     12 F         138.7400  145.3573  166.0695 F       1  UNL1       -0.2041
     13 C         139.9798  144.6608  163.8952 C.ar    1  UNL1        0.0408
     14 C         140.0013  143.9140  162.5945 C.ar    1  UNL1        0.0603
     15 CL        141.2196  143.9642  161.7208 Cl      1  UNL1       -0.0824
     16 C         138.1691  143.0415  157.0108 C.ar    1  UNL1        0.1931
     17 N         138.9270  144.1886  156.4110 N.ar    1  UNL1       -0.2297
     18 C         138.2388  144.5840  155.1382 C.ar    1  UNL1        0.1067
     19 C         137.0556  143.6812  154.9513 C.ar    1  UNL1        0.0577
     20 S         137.0125  142.7279  156.1086 S.2     1  UNL1       -0.0586
     21 C         139.5257  140.2053  162.1211 C.2     1  UNL1        0.3447
     22 O         140.9187  140.2787  162.6726 O.2     1  UNL1       -0.2450
     23 O         138.4719  139.4228  162.8472 O.3     1  UNL1       -0.4455
     24 C         139.0881  137.6881  164.6805 C.3     1  UNL1        0.0513
     25 C         138.7393  138.0047  163.2564 C.3     1  UNL1        0.2089
     26 C         139.5687  138.7117  159.5196 C.3     1  UNL1        0.1407
     27 N         140.4333  138.1706  158.4198 N.3     1  UNL1       -0.2584
     28 C         139.8107  137.7021  157.1380 C.3     1  UNL1        0.1052
     29 C         140.6754  137.1610  156.0382 C.3     1  UNL1        0.1595
     30 O         142.1626  137.0885  156.2202 O.3     1  UNL1       -0.3505
     31 C         142.7851  137.5570  157.5019 C.3     1  UNL1        0.1637
     32 C         141.9205  138.0981  158.6017 C.3     1  UNL1        0.1247
     33 C         142.5430  138.5666  159.8835 C.2     1  UNL1        0.0673
     34 O         143.2217  139.9030  159.9431 O.co2   1  UNL1       -0.5477
     35 O         142.4869  137.6988  161.1057 O.co2   1  UNL1       -0.5477
@<TRIPOS>UNITY_ATOM_ATTR
34 1
charge -1
@<TRIPOS>BOND
     1    24    25    1
     2    25    23    1
     3    23    21    1
     4    21    22    2
     5    21     1    1
     6     1     2    2
     7     2    26    1
     8    26    27    1
     9    27    28    1
    10    28    29    1
    11    29    30    1
    12    30    31    1
    13    31    32    1
    14    32    33    1
    15    33    34   ar
    16    33    35   ar
    17     2     3    1
    18     3     4    1
    19     4    16    1
    20    16    17   ar
    21    17    18   ar
    22    18    19   ar
    23    19    20   ar
    24     4     5    2
    25     5     6    1
    26     6     8    1
    27     8     9   ar
    28     9    10   ar
    29    10    11   ar
    30    11    12    1
    31    11    13   ar
    32    13    14   ar
    33    14    15    1
    34     6     1    1
    35    14     8   ar
    36    32    27    1
    37    20    16   ar
    38     3     7    1
@<TRIPOS>MOLECULE
*****
 35 38 0 0 0
SMALL
GASTEIGER

@<TRIPOS>ATOM
      1 C         142.8279  140.3868  159.4353 C.2     1  UNL1        0.1397
      2 C         143.2266  139.3806  158.3967 C.2     1  UNL1        0.1355
      3 N         144.2536  139.7366  157.3630 N.pl3   1  UNL1       -0.1998
      4 C         144.8819  141.0986  157.3678 C.2     1  UNL1        0.3442
      5 N         144.4832  142.1047  158.4064 N.2     1  UNL1       -0.0580
      6 C         143.4562  141.7488  159.4402 C.3     1  UNL1        0.2695
      7 H         144.5153  139.0762  156.6813 H       1  UNL1        0.2983
      8 C         143.0575  142.7550  160.4788 C.ar    1  UNL1        0.0415
      9 C         141.7872  143.5362  160.3175 C.ar    1  UNL1        0.0034
     10 C         141.3885  144.5423  161.3561 C.ar    1  UNL1        0.0295
     11 C         142.2601  144.7674  162.5560 C.ar    1  UNL1        0.1410
     12 F         141.8614  145.7735  163.5945 F       1  UNL1       -0.2041
     13 C         143.5305  143.9862  162.7172 C.ar    1  UNL1        0.0408
     14 C         143.9292  142.9800  161.6786 C.ar    1  UNL1        0.0603
     15 CL        145.1995  142.1989  161.8398 Cl      1  UNL1       -0.0824
     16 C         145.9089  141.4545  156.3341 C.ar    1  UNL1        0.1931
     17 N         146.0193  140.8622  154.9604 N.ar    1  UNL1       -0.2297
     18 C         147.1844  141.5068  154.2699 C.ar    1  UNL1        0.1067
     19 C         147.7942  142.4976  155.2168 C.ar    1  UNL1        0.0577
     20 S         147.0059  142.4652  156.4925 S.2     1  UNL1       -0.0586
     21 C         141.8009  140.0308  160.4691 C.2     1  UNL1        0.3447
     22 O         140.3412  140.1834  160.1597 O.2     1  UNL1       -0.2450
     23 O         142.2337  139.5224  161.8122 O.3     1  UNL1       -0.4455
     24 C         144.3283  139.1828  163.3115 C.3     1  UNL1        0.0513
     25 C         143.6239  138.9916  162.0009 C.3     1  UNL1        0.2089
     26 C         142.5983  138.0185  158.3919 C.3     1  UNL1        0.1407
     27 N         141.6866  137.6172  157.2705 N.3     1  UNL1       -0.2584
     28 C         140.2554  138.0663  157.2701 C.3     1  UNL1        0.1052
     29 C         139.3437  137.6649  156.1486 C.3     1  UNL1        0.1595
     30 O         139.8631  136.8144  155.0276 O.3     1  UNL1       -0.3505
     31 C         141.2942  136.3652  155.0280 C.3     1  UNL1        0.1637
     32 C         142.2060  136.7666  156.1494 C.3     1  UNL1        0.1247
     33 C         143.6372  136.3174  156.1497 C.2     1  UNL1        0.0673
     34 O         143.9882  134.9317  156.6045 O.co2   1  UNL1       -0.5477
     35 O         144.7173  137.2538  155.6954 O.co2   1  UNL1       -0.5477
@<TRIPOS>UNITY_ATOM_ATTR
34 1
charge -1
@<TRIPOS>BOND
     1    24    25    1
     2    25    23    1
     3    23    21    1
     4    21    22    2
     5    21     1    1
     6     1     2    2
     7     2    26    1
     8    26    27    1
     9    27    28    1
    10    28    29    1
    11    29    30    1
    12    30    31    1
    13    31    32    1
    14    32    33    1
    15    33    34   ar
    16    33    35   ar
    17     2     3    1
    18     3     4    1
    19     4    16    1
    20    16    17   ar
    21    17    18   ar
    22    18    19   ar
    23    19    20   ar
    24     4     5    2
    25     5     6    1
    26     6     8    1
    27     8     9   ar
    28     9    10   ar
    29    10    11   ar
    30    11    12    1
    31    11    13   ar
    32    13    14   ar
    33    14    15    1
    34     6     1    1
    35    14     8   ar
    36    32    27    1
    37    20    16   ar
    38     3     7    1
