@<TRIPOS>MOLECULE
*****
 26 29 0 0 0
SMALL
GASTEIGER

@<TRIPOS>ATOM
      1 C         143.7014  139.6294  164.9072 C.ar    1  UNL1       -0.0059
      2 C         143.9488  141.0908  165.1375 C.ar    1  UNL1        0.0002
      3 C         144.3735  141.9684  163.9975 C.ar    1  UNL1        0.0373
      4 C         144.5507  141.3845  162.6272 C.ar    1  UNL1        0.1477
      5 C         144.3033  139.9231  162.3970 C.ar    1  UNL1        0.0373
      6 C         143.8786  139.0456  163.5370 C.ar    1  UNL1        0.0002
      7 C         143.2767  138.7519  166.0472 C.3     1  UNL1        0.0991
      8 C         140.1854  140.2065  168.9760 C.3     1  UNL1        0.0393
      9 C         141.5660  139.8627  169.4515 C.3     1  UNL1        0.0229
     10 C         142.5964  139.3779  168.4752 C.3     1  UNL1        0.0728
     11 N         142.2463  139.2367  167.0235 N.3     1  UNL1       -0.2689
     12 C         140.8658  139.5804  166.5480 C.3     1  UNL1        0.0728
     13 C         139.8353  140.0653  167.5243 C.3     1  UNL1        0.0229
     14 O         139.2698  142.0651  170.5435 O.co2   1  UNL1       -0.5492
     15 C         139.1550  140.6913  169.9523 C.2     1  UNL1        0.0501
     16 O         138.0097  139.8024  170.3373 O.co2   1  UNL1       -0.5492
     17 O         144.9754  142.2620  161.4873 O.3     1  UNL1       -0.4313
     18 C         143.9419  142.9160  160.6188 C.ar    1  UNL1        0.2628
     19 N         142.9015  143.8966  161.0724 N.ar    1  UNL1       -0.2050
     20 C         142.0839  144.2908  159.8782 C.ar    1  UNL1        0.0910
     21 C         140.9213  145.2256  159.7220 C.ar    1  UNL1        0.0197
     22 C         140.2939  145.4234  158.3740 C.ar    1  UNL1        0.0016
     23 C         140.8290  144.6864  157.1822 C.ar    1  UNL1        0.0006
     24 C         141.9916  143.7516  157.3384 C.ar    1  UNL1        0.0081
     25 C         142.6191  143.5538  158.6864 C.ar    1  UNL1        0.0515
     26 S         143.7673  142.7041  159.1441 S.2     1  UNL1       -0.0283
@<TRIPOS>UNITY_ATOM_ATTR
14 1
charge -1
@<TRIPOS>BOND
     1    14    15   ar
     2    15    16   ar
     3    15     8    1
     4     8     9    1
     5     9    10    1
     6    10    11    1
     7    11     7    1
     8     7     1    1
     9     1     2   ar
    10     2     3   ar
    11     3     4   ar
    12     4    17    1
    13    17    18    1
    14    18    19   ar
    15    19    20   ar
    16    20    21   ar
    17    21    22   ar
    18    22    23   ar
    19    23    24   ar
    20    24    25   ar
    21    25    26   ar
    22     4     5   ar
    23     5     6   ar
    24    11    12    1
    25    12    13    1
    26    13     8    1
    27     6     1   ar
    28    26    18   ar
    29    25    20   ar
@<TRIPOS>MOLECULE
*****
 26 29 0 0 0
SMALL
GASTEIGER

@<TRIPOS>ATOM
      1 C         139.5523  138.6876  165.2797 C.ar    1  UNL1       -0.0059
      2 C         138.8312  138.5524  163.9714 C.ar    1  UNL1        0.0002
      3 C         139.5777  138.1186  162.7448 C.ar    1  UNL1        0.0373
      4 C         141.0454  137.8199  162.8266 C.ar    1  UNL1        0.1477
      5 C         141.7665  137.9551  164.1349 C.ar    1  UNL1        0.0373
      6 C         141.0200  138.3889  165.3614 C.ar    1  UNL1        0.0002
      7 C         138.8058  139.1214  166.5063 C.3     1  UNL1        0.0991
      8 C         140.4235  142.4513  169.0647 C.3     1  UNL1        0.0393
      9 C         139.8225  141.2362  169.7069 C.3     1  UNL1        0.0229
     10 C         139.2833  140.1262  168.8541 C.3     1  UNL1        0.0728
     11 N         139.3450  140.2314  167.3591 N.3     1  UNL1       -0.2689
     12 C         139.9459  141.4464  166.7168 C.3     1  UNL1        0.0728
     13 C         140.4851  142.5564  167.5696 C.3     1  UNL1        0.0229
     14 O         140.1239  144.7751  170.1870 O.co2   1  UNL1       -0.5492
     15 C         140.9627  143.5612  169.9174 C.2     1  UNL1        0.0501
     16 O         142.3407  143.4572  170.5007 O.co2   1  UNL1       -0.5492
     17 O         141.7919  137.3861  161.6000 O.3     1  UNL1       -0.4313
     18 C         142.4012  138.4118  160.6908 C.ar    1  UNL1        0.2628
     19 N         142.9511  139.7438  161.1074 N.ar    1  UNL1       -0.2050
     20 C         143.4573  140.4409  159.8795 C.ar    1  UNL1        0.0910
     21 C         144.1035  141.7797  159.6798 C.ar    1  UNL1        0.0197
     22 C         144.5126  142.2175  158.3047 C.ar    1  UNL1        0.0016
     23 C         144.2756  141.3163  157.1293 C.ar    1  UNL1        0.0006
     24 C         143.6295  139.9774  157.3289 C.ar    1  UNL1        0.0081
     25 C         143.2203  139.5397  158.7040 C.ar    1  UNL1        0.0515
     26 S         142.5676  138.2857  159.2054 S.2     1  UNL1       -0.0283
@<TRIPOS>UNITY_ATOM_ATTR
14 1
charge -1
@<TRIPOS>BOND
     1    14    15   ar
     2    15    16   ar
     3    15     8    1
     4     8     9    1
     5     9    10    1
     6    10    11    1
     7    11     7    1
     8     7     1    1
     9     1     2   ar
    10     2     3   ar
    11     3     4   ar
    12     4    17    1
    13    17    18    1
    14    18    19   ar
    15    19    20   ar
    16    20    21   ar
    17    21    22   ar
    18    22    23   ar
    19    23    24   ar
    20    24    25   ar
    21    25    26   ar
    22     4     5   ar
    23     5     6   ar
    24    11    12    1
    25    12    13    1
    26    13     8    1
    27     6     1   ar
    28    26    18   ar
    29    25    20   ar
@<TRIPOS>MOLECULE
*****
 26 29 0 0 0
SMALL
GASTEIGER

@<TRIPOS>ATOM
      1 C         139.4936  140.5696  164.3366 C.ar    1  UNL1       -0.0059
      2 C         138.0185  140.7338  164.1195 C.ar    1  UNL1        0.0002
      3 C         137.5144  141.4333  162.8919 C.ar    1  UNL1        0.0373
      4 C         138.4855  141.9684  161.8816 C.ar    1  UNL1        0.1477
      5 C         139.9606  141.8041  162.0988 C.ar    1  UNL1        0.0373
      6 C         140.4646  141.1047  163.3263 C.ar    1  UNL1        0.0002
      7 C         139.9977  139.8702  165.5642 C.3     1  UNL1        0.0991
      8 C         140.0250  142.0109  169.5222 C.3     1  UNL1        0.0393
      9 C         139.4130  140.6459  169.4120 C.3     1  UNL1        0.0229
     10 C         139.4039  139.9323  168.0927 C.3     1  UNL1        0.0728
     11 N         140.0068  140.5837  166.8835 N.3     1  UNL1       -0.2689
     12 C         140.6187  141.9487  166.9936 C.3     1  UNL1        0.0728
     13 C         140.6278  142.6624  168.3130 C.3     1  UNL1        0.0229
     14 O         140.7359  142.1153  172.0189 O.co2   1  UNL1       -0.5492
     15 C         140.0341  142.7245  170.8415 C.2     1  UNL1        0.0501
     16 O         139.3413  144.0473  170.9836 O.co2   1  UNL1       -0.5492
     17 O         137.9814  142.6678  160.6541 O.3     1  UNL1       -0.4313
     18 C         138.9528  143.2188  159.6527 C.ar    1  UNL1        0.2628
     19 N         139.6979  144.5155  159.7683 N.ar    1  UNL1       -0.2050
     20 C         140.5552  144.6680  158.5469 C.ar    1  UNL1        0.0910
     21 C         141.5040  145.7465  158.1150 C.ar    1  UNL1        0.0197
     22 C         142.2377  145.6225  156.8125 C.ar    1  UNL1        0.0016
     23 C         142.0224  144.4200  155.9421 C.ar    1  UNL1        0.0006
     24 C         141.0736  143.3415  156.3740 C.ar    1  UNL1        0.0081
     25 C         140.3400  143.4656  157.6765 C.ar    1  UNL1        0.0515
     26 S         139.3497  142.5699  158.3599 S.2     1  UNL1       -0.0283
@<TRIPOS>UNITY_ATOM_ATTR
14 1
charge -1
@<TRIPOS>BOND
     1    14    15   ar
     2    15    16   ar
     3    15     8    1
     4     8     9    1
     5     9    10    1
     6    10    11    1
     7    11     7    1
     8     7     1    1
     9     1     2   ar
    10     2     3   ar
    11     3     4   ar
    12     4    17    1
    13    17    18    1
    14    18    19   ar
    15    19    20   ar
    16    20    21   ar
    17    21    22   ar
    18    22    23   ar
    19    23    24   ar
    20    24    25   ar
    21    25    26   ar
    22     4     5   ar
    23     5     6   ar
    24    11    12    1
    25    12    13    1
    26    13     8    1
    27     6     1   ar
    28    26    18   ar
    29    25    20   ar
@<TRIPOS>MOLECULE
*****
 26 29 0 0 0
SMALL
GASTEIGER

@<TRIPOS>ATOM
      1 C         139.5876  138.6654  165.3753 C.ar    1  UNL1       -0.0059
      2 C         141.0874  138.6489  165.3920 C.ar    1  UNL1        0.0002
      3 C         141.8459  138.1838  164.1843 C.ar    1  UNL1        0.0373
      4 C         141.1046  137.7354  162.9599 C.ar    1  UNL1        0.1477
      5 C         139.6047  137.7519  162.9432 C.ar    1  UNL1        0.0373
      6 C         138.8463  138.2169  164.1508 C.ar    1  UNL1        0.0002
      7 C         138.8291  139.1304  166.5830 C.3     1  UNL1        0.0991
      8 C         140.4434  142.4967  169.0953 C.3     1  UNL1        0.0393
      9 C         140.5049  142.5814  167.5989 C.3     1  UNL1        0.0229
     10 C         139.9668  141.4593  166.7615 C.3     1  UNL1        0.0728
     11 N         139.3672  140.2525  167.4204 N.3     1  UNL1       -0.2689
     12 C         139.3057  140.1678  168.9167 C.3     1  UNL1        0.0728
     13 C         139.8438  141.2900  169.7542 C.3     1  UNL1        0.0229
     14 O         142.3777  143.5463  170.4761 O.co2   1  UNL1       -0.5492
     15 C         140.9815  143.6188  169.9327 C.2     1  UNL1        0.0501
     16 O         140.1234  144.8135  170.2268 O.co2   1  UNL1       -0.5492
     17 O         141.8630  137.2703  161.7522 O.3     1  UNL1       -0.4313
     18 C         142.1627  138.2303  160.6392 C.ar    1  UNL1        0.2628
     19 N         141.3518  138.4137  159.3907 N.ar    1  UNL1       -0.2050
     20 C         142.0138  139.4721  158.5592 C.ar    1  UNL1        0.0910
     21 C         141.6633  140.0680  157.2281 C.ar    1  UNL1        0.0197
     22 C         142.5329  141.1348  156.6316 C.ar    1  UNL1        0.0016
     23 C         143.7530  141.6056  157.3662 C.ar    1  UNL1        0.0006
     24 C         144.1035  141.0097  158.6974 C.ar    1  UNL1        0.0081
     25 C         143.2339  139.9429  159.2939 C.ar    1  UNL1        0.0515
     26 S         143.3259  139.1754  160.5794 S.2     1  UNL1       -0.0283
@<TRIPOS>UNITY_ATOM_ATTR
14 1
charge -1
@<TRIPOS>BOND
     1    14    15   ar
     2    15    16   ar
     3    15     8    1
     4     8     9    1
     5     9    10    1
     6    10    11    1
     7    11     7    1
     8     7     1    1
     9     1     2   ar
    10     2     3   ar
    11     3     4   ar
    12     4    17    1
    13    17    18    1
    14    18    19   ar
    15    19    20   ar
    16    20    21   ar
    17    21    22   ar
    18    22    23   ar
    19    23    24   ar
    20    24    25   ar
    21    25    26   ar
    22     4     5   ar
    23     5     6   ar
    24    11    12    1
    25    12    13    1
    26    13     8    1
    27     6     1   ar
    28    26    18   ar
    29    25    20   ar
@<TRIPOS>MOLECULE
*****
 26 29 0 0 0
SMALL
GASTEIGER

@<TRIPOS>ATOM
      1 C         138.6235  139.0242  165.5944 C.ar    1  UNL1       -0.0059
      2 C         138.0528  140.2275  164.9043 C.ar    1  UNL1        0.0002
      3 C         137.9417  140.2520  163.4086 C.ar    1  UNL1        0.0373
      4 C         138.4014  139.0731  162.6030 C.ar    1  UNL1        0.1477
      5 C         138.9722  137.8698  163.2932 C.ar    1  UNL1        0.0373
      6 C         139.0832  137.8453  164.7888 C.ar    1  UNL1        0.0002
      7 C         138.7346  138.9997  167.0901 C.3     1  UNL1        0.0991
      8 C         140.4412  142.5424  169.2780 C.3     1  UNL1        0.0393
      9 C         140.6322  142.4130  167.7958 C.3     1  UNL1        0.0229
     10 C         140.0633  141.2321  167.0665 C.3     1  UNL1        0.0728
     11 N         139.3034  140.1806  167.8194 N.3     1  UNL1       -0.2689
     12 C         139.1124  140.3099  169.3015 C.3     1  UNL1        0.0728
     13 C         139.6813  141.4909  170.0309 C.3     1  UNL1        0.0229
     14 O         142.4462  143.7167  170.4402 O.co2   1  UNL1       -0.5492
     15 C         141.0100  143.7233  170.0073 C.2     1  UNL1        0.0501
     16 O         140.1428  144.9107  170.3036 O.co2   1  UNL1       -0.5492
     17 O         138.2904  139.0976  161.1074 O.3     1  UNL1       -0.4313
     18 C         139.5200  139.2753  160.2668 C.ar    1  UNL1        0.2628
     19 N         140.7276  140.0869  160.6316 N.ar    1  UNL1       -0.2050
     20 C         141.7118  139.9859  159.5041 C.ar    1  UNL1        0.0910
     21 C         143.0763  140.5768  159.3070 C.ar    1  UNL1        0.0197
     22 C         143.8415  140.2938  158.0483 C.ar    1  UNL1        0.0016
     23 C         143.2421  139.4199  156.9867 C.ar    1  UNL1        0.0006
     24 C         141.8776  138.8289  157.1838 C.ar    1  UNL1        0.0081
     25 C         141.1125  139.1120  158.4425 C.ar    1  UNL1        0.0515
     26 S         139.7579  138.6728  158.9139 S.2     1  UNL1       -0.0283
@<TRIPOS>UNITY_ATOM_ATTR
14 1
charge -1
@<TRIPOS>BOND
     1    14    15   ar
     2    15    16   ar
     3    15     8    1
     4     8     9    1
     5     9    10    1
     6    10    11    1
     7    11     7    1
     8     7     1    1
     9     1     2   ar
    10     2     3   ar
    11     3     4   ar
    12     4    17    1
    13    17    18    1
    14    18    19   ar
    15    19    20   ar
    16    20    21   ar
    17    21    22   ar
    18    22    23   ar
    19    23    24   ar
    20    24    25   ar
    21    25    26   ar
    22     4     5   ar
    23     5     6   ar
    24    11    12    1
    25    12    13    1
    26    13     8    1
    27     6     1   ar
    28    26    18   ar
    29    25    20   ar
@<TRIPOS>MOLECULE
*****
 26 29 0 0 0
SMALL
GASTEIGER

@<TRIPOS>ATOM
      1 C         138.8125  139.5067  164.9837 C.ar    1  UNL1       -0.0059
      2 C         139.3864  138.6615  163.8855 C.ar    1  UNL1        0.0002
      3 C         139.0366  138.9505  162.4557 C.ar    1  UNL1        0.0373
      4 C         138.1128  140.0849  162.1242 C.ar    1  UNL1        0.1477
      5 C         137.5388  140.9301  163.2225 C.ar    1  UNL1        0.0373
      6 C         137.8887  140.6411  164.6522 C.ar    1  UNL1        0.0002
      7 C         139.1623  139.2177  166.4134 C.3     1  UNL1        0.0991
      8 C         140.5064  142.5524  169.1194 C.3     1  UNL1        0.0393
      9 C         140.7864  142.6220  167.6474 C.3     1  UNL1        0.0229
     10 C         140.3383  141.5104  166.7454 C.3     1  UNL1        0.0728
     11 N         139.6103  140.3292  167.3154 N.3     1  UNL1       -0.2689
     12 C         139.3304  140.2597  168.7874 C.3     1  UNL1        0.0728
     13 C         139.7784  141.3713  169.6894 C.3     1  UNL1        0.0229
     14 O         140.0353  144.8144  170.3074 O.co2   1  UNL1       -0.5492
     15 C         140.9544  143.6640  170.0214 C.2     1  UNL1        0.0501
     16 O         142.3215  143.6252  170.6374 O.co2   1  UNL1       -0.5492
     17 O         137.7630  140.3739  160.6946 O.3     1  UNL1       -0.4313
     18 C         138.4035  141.5297  159.9846 C.ar    1  UNL1        0.2628
     19 N         139.1847  142.6366  160.6285 N.ar    1  UNL1       -0.2050
     20 C         139.6393  143.5725  159.5480 C.ar    1  UNL1        0.0910
     21 C         140.4441  144.8376  159.5890 C.ar    1  UNL1        0.0197
     22 C         140.7486  145.5742  158.3184 C.ar    1  UNL1        0.0016
     23 C         140.2483  145.0458  157.0067 C.ar    1  UNL1        0.0006
     24 C         139.4435  143.7807  156.9657 C.ar    1  UNL1        0.0081
     25 C         139.1390  143.0440  158.2363 C.ar    1  UNL1        0.0515
     26 S         138.3752  141.7815  158.5062 S.2     1  UNL1       -0.0283
@<TRIPOS>UNITY_ATOM_ATTR
14 1
charge -1
@<TRIPOS>BOND
     1    14    15   ar
     2    15    16   ar
     3    15     8    1
     4     8     9    1
     5     9    10    1
     6    10    11    1
     7    11     7    1
     8     7     1    1
     9     1     2   ar
    10     2     3   ar
    11     3     4   ar
    12     4    17    1
    13    17    18    1
    14    18    19   ar
    15    19    20   ar
    16    20    21   ar
    17    21    22   ar
    18    22    23   ar
    19    23    24   ar
    20    24    25   ar
    21    25    26   ar
    22     4     5   ar
    23     5     6   ar
    24    11    12    1
    25    12    13    1
    26    13     8    1
    27     6     1   ar
    28    26    18   ar
    29    25    20   ar
@<TRIPOS>MOLECULE
*****
 26 29 0 0 0
SMALL
GASTEIGER

@<TRIPOS>ATOM
      1 C         138.3540  138.9464  162.8782 C.ar    1  UNL1       -0.0059
      2 C         138.7642  137.7183  163.6354 C.ar    1  UNL1        0.0002
      3 C         138.8448  137.7525  165.1329 C.ar    1  UNL1        0.0373
      4 C         138.5152  139.0149  165.8731 C.ar    1  UNL1        0.1477
      5 C         138.1050  140.2430  165.1157 C.ar    1  UNL1        0.0373
      6 C         138.0244  140.2087  163.6183 C.ar    1  UNL1        0.0002
      7 C         138.2734  138.9121  161.3807 C.3     1  UNL1        0.0991
      8 C         142.0354  139.1129  158.9197 C.3     1  UNL1        0.0393
      9 C         142.0257  139.6505  160.3200 C.3     1  UNL1        0.0229
     10 C         140.7717  139.5836  161.1403 C.3     1  UNL1        0.0728
     11 N         139.5274  138.9791  160.5604 N.3     1  UNL1       -0.2689
     12 C         139.5371  138.4415  159.1601 C.3     1  UNL1        0.0728
     13 C         140.7912  138.5084  158.3397 C.3     1  UNL1        0.0229
     14 O         143.4942  138.2225  156.9629 O.co2   1  UNL1       -0.5492
     15 C         143.2894  139.1798  158.0993 C.2     1  UNL1        0.0501
     16 O         144.3387  140.2041  158.4155 O.co2   1  UNL1       -0.5492
     17 O         138.5958  139.0492  167.3705 O.3     1  UNL1       -0.4313
     18 C         139.6398  139.8877  168.0464 C.ar    1  UNL1        0.2628
     19 N         140.9764  140.2603  167.4764 N.ar    1  UNL1       -0.2050
     20 C         141.6932  141.1037  168.4887 C.ar    1  UNL1        0.0910
     21 C         143.0441  141.7555  168.4762 C.ar    1  UNL1        0.0197
     22 C         143.5015  142.5561  169.6594 C.ar    1  UNL1        0.0016
     23 C         142.6080  142.7048  170.8550 C.ar    1  UNL1        0.0006
     24 C         141.2571  142.0530  170.8675 C.ar    1  UNL1        0.0081
     25 C         140.7997  141.2525  169.6843 C.ar    1  UNL1        0.0515
     26 S         139.5307  140.5009  169.4109 S.2     1  UNL1       -0.0283
@<TRIPOS>UNITY_ATOM_ATTR
14 1
charge -1
@<TRIPOS>BOND
     1    14    15   ar
     2    15    16   ar
     3    15     8    1
     4     8     9    1
     5     9    10    1
     6    10    11    1
     7    11     7    1
     8     7     1    1
     9     1     2   ar
    10     2     3   ar
    11     3     4   ar
    12     4    17    1
    13    17    18    1
    14    18    19   ar
    15    19    20   ar
    16    20    21   ar
    17    21    22   ar
    18    22    23   ar
    19    23    24   ar
    20    24    25   ar
    21    25    26   ar
    22     4     5   ar
    23     5     6   ar
    24    11    12    1
    25    12    13    1
    26    13     8    1
    27     6     1   ar
    28    26    18   ar
    29    25    20   ar
@<TRIPOS>MOLECULE
*****
 26 29 0 0 0
SMALL
GASTEIGER

@<TRIPOS>ATOM
      1 C         138.5336  139.0047  165.5880 C.ar    1  UNL1       -0.0059
      2 C         138.0864  140.0800  164.6427 C.ar    1  UNL1        0.0002
      3 C         138.1253  139.8410  163.1623 C.ar    1  UNL1        0.0373
      4 C         138.6115  138.5267  162.6273 C.ar    1  UNL1        0.1477
      5 C         139.0588  137.4514  163.5727 C.ar    1  UNL1        0.0373
      6 C         139.0198  137.6904  165.0530 C.ar    1  UNL1        0.0002
      7 C         138.4947  139.2436  167.0684 C.3     1  UNL1        0.0991
      8 C         141.6630  141.7714  169.0235 C.3     1  UNL1        0.0393
      9 C         140.4714  141.3183  169.8140 C.3     1  UNL1        0.0229
     10 C         139.4153  140.4758  169.1623 C.3     1  UNL1        0.0728
     11 N         139.5508  140.0862  167.7201 N.3     1  UNL1       -0.2689
     12 C         140.7424  140.5392  166.9296 C.3     1  UNL1        0.0728
     13 C         141.7985  141.3818  167.5813 C.3     1  UNL1        0.0229
     14 O         142.4297  143.3078  170.9732 O.co2   1  UNL1       -0.5492
     15 C         142.7191  142.6139  169.6752 C.2     1  UNL1        0.0501
     16 O         144.0645  142.7626  169.0290 O.co2   1  UNL1       -0.5492
     17 O         138.6504  138.2878  161.1470 O.3     1  UNL1       -0.4313
     18 C         138.8096  139.4438  160.2046 C.ar    1  UNL1        0.2628
     19 N         137.7376  140.0214  159.3286 N.ar    1  UNL1       -0.2050
     20 C         138.3342  141.1598  158.5553 C.ar    1  UNL1        0.0910
     21 C         137.7518  142.0979  157.5401 C.ar    1  UNL1        0.0197
     22 C         138.6100  143.1621  156.9230 C.ar    1  UNL1        0.0016
     23 C         140.0507  143.2882  157.3210 C.ar    1  UNL1        0.0006
     24 C         140.6332  142.3500  158.3362 C.ar    1  UNL1        0.0081
     25 C         139.7750  141.2859  158.9533 C.ar    1  UNL1        0.0515
     26 S         140.0687  140.2253  159.9726 S.2     1  UNL1       -0.0283
@<TRIPOS>UNITY_ATOM_ATTR
14 1
charge -1
@<TRIPOS>BOND
     1    14    15   ar
     2    15    16   ar
     3    15     8    1
     4     8     9    1
     5     9    10    1
     6    10    11    1
     7    11     7    1
     8     7     1    1
     9     1     2   ar
    10     2     3   ar
    11     3     4   ar
    12     4    17    1
    13    17    18    1
    14    18    19   ar
    15    19    20   ar
    16    20    21   ar
    17    21    22   ar
    18    22    23   ar
    19    23    24   ar
    20    24    25   ar
    21    25    26   ar
    22     4     5   ar
    23     5     6   ar
    24    11    12    1
    25    12    13    1
    26    13     8    1
    27     6     1   ar
    28    26    18   ar
    29    25    20   ar
@<TRIPOS>MOLECULE
*****
 26 29 0 0 0
SMALL
GASTEIGER

@<TRIPOS>ATOM
      1 C         138.8408  139.4125  165.1024 C.ar    1  UNL1       -0.0059
      2 C         137.9413  140.5629  164.7596 C.ar    1  UNL1        0.0002
      3 C         137.5678  140.8229  163.3303 C.ar    1  UNL1        0.0373
      4 C         138.0938  139.9325  162.2438 C.ar    1  UNL1        0.1477
      5 C         138.9933  138.7821  162.5866 C.ar    1  UNL1        0.0373
      6 C         139.3667  138.5221  164.0159 C.ar    1  UNL1        0.0002
      7 C         139.2143  139.1525  166.5317 C.3     1  UNL1        0.0991
      8 C         140.5226  142.5549  169.1702 C.3     1  UNL1        0.0393
      9 C         139.7719  141.3964  169.7571 C.3     1  UNL1        0.0229
     10 C         139.3358  140.2623  168.8777 C.3     1  UNL1        0.0728
     11 N         139.6504  140.2866  167.4112 N.3     1  UNL1       -0.2689
     12 C         140.4010  141.4450  166.8242 C.3     1  UNL1        0.0728
     13 C         140.8371  142.5792  167.7037 C.3     1  UNL1        0.0229
     14 O         142.3119  143.6593  170.6961 O.co2   1  UNL1       -0.5492
     15 C         140.9587  143.6891  170.0496 C.2     1  UNL1        0.0501
     16 O         140.0416  144.8530  170.2826 O.co2   1  UNL1       -0.5492
     17 O         137.7203  140.1925  160.8145 O.3     1  UNL1       -0.4313
     18 C         138.3288  141.3495  160.0788 C.ar    1  UNL1        0.2628
     19 N         138.2267  141.6092  158.6050 N.ar    1  UNL1       -0.2050
     20 C         138.9811  142.8701  158.3031 C.ar    1  UNL1        0.0910
     21 C         139.2239  143.6122  157.0224 C.ar    1  UNL1        0.0197
     22 C         140.0350  144.8739  157.0290 C.ar    1  UNL1        0.0016
     23 C         140.6033  145.3935  158.3162 C.ar    1  UNL1        0.0006
     24 C         140.3604  144.6514  159.5969 C.ar    1  UNL1        0.0081
     25 C         139.5493  143.3897  159.5904 C.ar    1  UNL1        0.0515
     26 S         139.1462  142.4499  160.6878 S.2     1  UNL1       -0.0283
@<TRIPOS>UNITY_ATOM_ATTR
14 1
charge -1
@<TRIPOS>BOND
     1    14    15   ar
     2    15    16   ar
     3    15     8    1
     4     8     9    1
     5     9    10    1
     6    10    11    1
     7    11     7    1
     8     7     1    1
     9     1     2   ar
    10     2     3   ar
    11     3     4   ar
    12     4    17    1
    13    17    18    1
    14    18    19   ar
    15    19    20   ar
    16    20    21   ar
    17    21    22   ar
    18    22    23   ar
    19    23    24   ar
    20    24    25   ar
    21    25    26   ar
    22     4     5   ar
    23     5     6   ar
    24    11    12    1
    25    12    13    1
    26    13     8    1
    27     6     1   ar
    28    26    18   ar
    29    25    20   ar
