@<TRIPOS>MOLECULE
*****
 41 46 0 0 0
SMALL
GASTEIGER

@<TRIPOS>ATOM
      1 C         142.5098  140.0348  157.7701 C.ar    1  UNL1        0.0027
      2 C         141.7380  140.0365  159.0562 C.ar    1  UNL1       -0.0002
      3 C         141.2827  141.3338  159.6559 C.ar    1  UNL1       -0.0026
      4 C         141.5993  142.6294  158.9695 C.ar    1  UNL1       -0.0019
      5 C         142.3712  142.6277  157.6834 C.ar    1  UNL1       -0.0241
      6 C         142.8264  141.3304  157.0837 C.ar    1  UNL1       -0.0044
      7 C         142.5335  144.0510  157.2384 C.3     1  UNL1        0.0286
      8 C         141.8620  144.9323  158.2496 C.3     1  UNL1        0.0359
      9 C         141.2846  144.0537  159.3195 C.3     1  UNL1        0.1466
     10 N         140.9700  145.4780  159.6693 N.am    1  UNL1       -0.2806
     11 C         140.1981  145.4797  160.9555 C.2     1  UNL1        0.3107
     12 O         139.6796  146.6918  161.6710 O.2     1  UNL1       -0.2521
     13 N         140.0358  144.0564  161.4005 N.am    1  UNL1       -0.2035
     14 C         140.7072  143.1752  160.3894 C.2     1  UNL1        0.2528
     15 O         140.7873  141.6781  160.4394 O.2     1  UNL1       -0.2723
     16 H         141.2252  146.2722  159.1466 H       1  UNL1        0.1516
     17 C         143.1774  134.8725  156.8835 C.3     1  UNL1        0.1538
     18 N         143.2719  136.3646  156.7628 N.ar    1  UNL1       -0.2473
     19 C         142.5956  137.3657  157.6518 C.ar    1  UNL1        0.0967
     20 C         142.9652  138.7375  157.1703 C.ar    1  UNL1        0.0396
     21 C         143.8699  138.5841  155.9837 C.ar    1  UNL1        0.1216
     22 N         144.0595  137.1176  155.7319 N.ar    1  UNL1       -0.1676
     23 C         139.3264  143.5955  162.6391 C.3     1  UNL1        0.1874
     24 C         139.9931  143.7233  163.9767 C.2     1  UNL1        0.2469
     25 O         140.8577  144.9127  164.2732 O.2     1  UNL1       -0.2730
     26 N         139.7951  142.6619  165.0179 N.am    1  UNL1       -0.2647
     27 C         140.5058  142.8865  166.3197 C.3     1  UNL1        0.1236
     28 C         140.5095  142.0208  167.5447 C.ar    1  UNL1        0.0339
     29 C         141.3542  142.6147  168.6327 C.ar    1  UNL1        0.0300
     30 C         141.4930  141.9045  169.9467 C.ar    1  UNL1        0.1401
     31 F         142.3377  142.4982  171.0347 F       1  UNL1       -0.2042
     32 C         140.7870  140.6004  170.1725 C.ar    1  UNL1        0.0327
     33 C         139.9423  140.0065  169.0845 C.ar    1  UNL1        0.0389
     34 C         139.8035  140.7168  167.7705 C.ar    1  UNL1        0.1364
     35 O         138.9194  139.9563  166.8271 O.3     1  UNL1       -0.4736
     36 C         138.5230  140.3120  165.4249 C.3     1  UNL1        0.2338
     37 C         138.9127  141.5161  164.6198 C.3     1  UNL1        0.2149
     38 C         138.3449  141.5833  163.2330 C.3     1  UNL1        0.4174
     39 F         137.7771  141.6506  161.8462 F       1  UNL1       -0.1681
     40 F         137.1907  142.3933  163.7449 F       1  UNL1       -0.1681
     41 F         139.4990  140.7734  162.7211 F       1  UNL1       -0.1681
@<TRIPOS>BOND
     1    17    18    1
     2    18    19   ar
     3    19    20   ar
     4    20     1    1
     5     1     2   ar
     6     2     3   ar
     7     3     4   ar
     8     4     5   ar
     9     5     6   ar
    10     5     7    1
    11     7     8    1
    12     9     8    1
    13     9    10    1
    14    10    11   am
    15    11    12    2
    16    11    13   am
    17    13    23    1
    18    23    24    1
    19    24    25    2
    20    24    26   am
    21    26    27    1
    22    27    28    1
    23    28    29   ar
    24    29    30   ar
    25    30    31    1
    26    30    32   ar
    27    32    33   ar
    28    33    34   ar
    29    34    35    1
    30    35    36    1
    31    36    37    1
    32    37    38    1
    33    38    39    1
    34    38    40    1
    35    38    41    1
    36    13    14   am
    37    14    15    2
    38    20    21   ar
    39    21    22   ar
    40    22    18   ar
    41     6     1   ar
    42    14     9    1
    43     9     4    1
    44    37    26    1
    45    34    28   ar
    46    10    16    1
@<TRIPOS>MOLECULE
*****
 41 46 0 0 0
SMALL
GASTEIGER

@<TRIPOS>ATOM
      1 C         137.8971  140.5399  157.0233 C.ar    1  UNL1        0.0027
      2 C         137.7583  140.3881  158.5091 C.ar    1  UNL1       -0.0002
      3 C         138.9141  139.8864  159.3230 C.ar    1  UNL1       -0.0026
      4 C         140.2087  139.5365  158.6510 C.ar    1  UNL1       -0.0019
      5 C         140.3475  139.6882  157.1652 C.ar    1  UNL1       -0.0241
      6 C         139.1917  140.1899  156.3514 C.ar    1  UNL1       -0.0044
      7 C         141.7359  139.2675  156.7841 C.3     1  UNL1        0.0286
      8 C         142.4552  138.8557  158.0343 C.3     1  UNL1        0.0359
      9 C         141.5113  139.0219  159.1882 C.3     1  UNL1        0.1466
     10 N         142.8139  138.5074  159.7253 N.am    1  UNL1       -0.2806
     11 C         142.6751  138.3556  161.2111 C.2     1  UNL1        0.3107
     12 O         143.7381  137.8686  162.1507 O.2     1  UNL1       -0.2521
     13 N         141.2867  138.7764  161.5922 N.am    1  UNL1       -0.2035
     14 C         140.5675  139.1882  160.3421 C.2     1  UNL1        0.2528
     15 O         139.1527  139.6799  160.2602 O.2     1  UNL1       -0.2723
     16 H         143.6187  138.3048  159.1956 H       1  UNL1        0.1516
     17 C         133.0138  141.2665  155.1508 C.3     1  UNL1        0.1538
     18 N         134.4967  141.3756  155.3487 N.ar    1  UNL1       -0.2473
     19 C         135.3079  140.6277  156.3649 C.ar    1  UNL1        0.0967
     20 C         136.7413  141.0416  156.2094 C.ar    1  UNL1        0.0396
     21 C         136.8159  142.0452  155.0971 C.ar    1  UNL1        0.1216
     22 N         135.4287  142.2517  154.5652 N.ar    1  UNL1       -0.1676
     23 C         140.7175  138.7840  162.9800 C.3     1  UNL1        0.1874
     24 C         141.2695  139.7223  164.0119 C.2     1  UNL1        0.2469
     25 O         142.4677  140.5667  163.6934 O.2     1  UNL1       -0.2730
     26 N         140.6235  139.8162  165.3624 N.am    1  UNL1       -0.2647
     27 C         141.2535  140.7843  166.3195 C.3     1  UNL1        0.1236
     28 C         140.8484  141.1048  167.7277 C.ar    1  UNL1        0.0339
     29 C         141.7514  142.1366  168.3362 C.ar    1  UNL1        0.0300
     30 C         141.5191  142.6001  169.7438 C.ar    1  UNL1        0.1401
     31 F         142.4220  143.6318  170.3523 F       1  UNL1       -0.2042
     32 C         140.3839  142.0317  170.5428 C.ar    1  UNL1        0.0327
     33 C         139.4810  141.0000  169.9343 C.ar    1  UNL1        0.0389
     34 C         139.7133  140.5365  168.5267 C.ar    1  UNL1        0.1364
     35 O         138.7029  139.5073  168.1149 O.3     1  UNL1       -0.4736
     36 C         138.5780  138.7922  166.8023 C.3     1  UNL1        0.2338
     37 C         139.4327  138.9297  165.5773 C.3     1  UNL1        0.2149
     38 C         139.0456  138.0664  164.4133 C.3     1  UNL1        0.4174
     39 F         138.6583  137.2032  163.2492 F       1  UNL1       -0.1681
     40 F         138.1580  139.1601  163.8974 F       1  UNL1       -0.1681
     41 F         139.9331  136.9727  164.9291 F       1  UNL1       -0.1681
@<TRIPOS>BOND
     1    17    18    1
     2    18    19   ar
     3    19    20   ar
     4    20     1    1
     5     1     2   ar
     6     2     3   ar
     7     3     4   ar
     8     4     5   ar
     9     5     6   ar
    10     5     7    1
    11     7     8    1
    12     9     8    1
    13     9    10    1
    14    10    11   am
    15    11    12    2
    16    11    13   am
    17    13    23    1
    18    23    24    1
    19    24    25    2
    20    24    26   am
    21    26    27    1
    22    27    28    1
    23    28    29   ar
    24    29    30   ar
    25    30    31    1
    26    30    32   ar
    27    32    33   ar
    28    33    34   ar
    29    34    35    1
    30    35    36    1
    31    36    37    1
    32    37    38    1
    33    38    39    1
    34    38    40    1
    35    38    41    1
    36    13    14   am
    37    14    15    2
    38    20    21   ar
    39    21    22   ar
    40    22    18   ar
    41     6     1   ar
    42    14     9    1
    43     9     4    1
    44    37    26    1
    45    34    28   ar
    46    10    16    1
@<TRIPOS>MOLECULE
*****
 41 46 0 0 0
SMALL
GASTEIGER

@<TRIPOS>ATOM
      1 C         139.5892  141.4264  164.6777 C.ar    1  UNL1        0.0027
      2 C         140.2534  140.8614  163.4573 C.ar    1  UNL1       -0.0002
      3 C         140.6875  141.7744  162.3492 C.ar    1  UNL1       -0.0026
      4 C         140.4574  143.2524  162.4615 C.ar    1  UNL1       -0.0019
      5 C         139.7932  143.8174  163.6820 C.ar    1  UNL1       -0.0241
      6 C         139.3591  142.9044  164.7901 C.ar    1  UNL1       -0.0044
      7 C         139.7000  145.3048  163.5124 C.3     1  UNL1        0.0286
      8 C         140.3066  145.6592  162.1870 C.3     1  UNL1        0.0359
      9 C         140.7747  144.3907  161.5376 C.3     1  UNL1        0.1466
     10 N         141.0919  145.5290  160.6136 N.am    1  UNL1       -0.2806
     11 C         141.7561  144.9640  159.3932 C.2     1  UNL1        0.3107
     12 O         142.2418  145.7488  158.2107 O.2     1  UNL1       -0.2521
     13 N         141.8493  143.4766  159.5628 N.am    1  UNL1       -0.2035
     14 C         141.2428  143.1223  160.8881 C.2     1  UNL1        0.2528
     15 O         141.1250  141.7418  161.4630 O.2     1  UNL1       -0.2723
     16 H         140.8982  146.4800  160.7792 H       1  UNL1        0.1516
     17 C         137.0872  137.6380  167.3740 C.3     1  UNL1        0.1538
     18 N         138.0050  138.7720  167.0252 N.ar    1  UNL1       -0.2473
     19 C         138.1201  139.4325  165.6834 C.ar    1  UNL1        0.0967
     20 C         139.1551  140.5134  165.7859 C.ar    1  UNL1        0.0396
     21 C         139.6797  140.5209  167.1912 C.ar    1  UNL1        0.1216
     22 N         138.9690  139.4447  167.9571 N.ar    1  UNL1       -0.1676
     23 C         142.4446  142.5127  158.5797 C.3     1  UNL1        0.1874
     24 C         143.9308  142.4649  158.3822 C.2     1  UNL1        0.2469
     25 O         144.8492  142.6293  159.5567 O.2     1  UNL1       -0.2730
     26 N         144.4986  142.2526  157.0101 N.am    1  UNL1       -0.2647
     27 C         145.9958  142.2212  156.9230 C.3     1  UNL1        0.1236
     28 C         146.8582  142.0292  155.7108 C.ar    1  UNL1        0.0339
     29 C         148.3156  142.0642  156.0642 C.ar    1  UNL1        0.0300
     30 C         149.3514  141.8912  154.9931 C.ar    1  UNL1        0.1401
     31 F         150.8088  141.9261  155.3463 F       1  UNL1       -0.2042
     32 C         148.9297  141.6833  153.5686 C.ar    1  UNL1        0.0327
     33 C         147.4724  141.6483  153.2153 C.ar    1  UNL1        0.0389
     34 C         146.4366  141.8213  154.2864 C.ar    1  UNL1        0.1364
     35 O         145.0484  141.7540  153.7224 O.3     1  UNL1       -0.4736
     36 C         143.7389  141.8780  154.4434 C.3     1  UNL1        0.2338
     37 C         143.4942  142.0999  155.9065 C.3     1  UNL1        0.2149
     38 C         142.0549  142.1796  156.3210 C.3     1  UNL1        0.4174
     39 F         140.6154  142.2592  156.7355 F       1  UNL1       -0.1681
     40 F         142.0493  140.7031  156.5858 F       1  UNL1       -0.1681
     41 F         142.0603  143.6560  156.0562 F       1  UNL1       -0.1681
@<TRIPOS>BOND
     1    17    18    1
     2    18    19   ar
     3    19    20   ar
     4    20     1    1
     5     1     2   ar
     6     2     3   ar
     7     3     4   ar
     8     4     5   ar
     9     5     6   ar
    10     5     7    1
    11     7     8    1
    12     9     8    1
    13     9    10    1
    14    10    11   am
    15    11    12    2
    16    11    13   am
    17    13    23    1
    18    23    24    1
    19    24    25    2
    20    24    26   am
    21    26    27    1
    22    27    28    1
    23    28    29   ar
    24    29    30   ar
    25    30    31    1
    26    30    32   ar
    27    32    33   ar
    28    33    34   ar
    29    34    35    1
    30    35    36    1
    31    36    37    1
    32    37    38    1
    33    38    39    1
    34    38    40    1
    35    38    41    1
    36    13    14   am
    37    14    15    2
    38    20    21   ar
    39    21    22   ar
    40    22    18   ar
    41     6     1   ar
    42    14     9    1
    43     9     4    1
    44    37    26    1
    45    34    28   ar
    46    10    16    1
@<TRIPOS>MOLECULE
*****
 41 46 0 0 0
SMALL
GASTEIGER

@<TRIPOS>ATOM
      1 C         144.2993  142.5043  157.9904 C.ar    1  UNL1        0.0027
      2 C         144.0928  141.8389  159.3188 C.ar    1  UNL1       -0.0002
      3 C         142.7474  141.8862  159.9802 C.ar    1  UNL1       -0.0026
      4 C         141.6084  142.5989  159.3132 C.ar    1  UNL1       -0.0019
      5 C         141.8149  143.2642  157.9848 C.ar    1  UNL1       -0.0241
      6 C         143.1603  143.2169  157.3235 C.ar    1  UNL1       -0.0044
      7 C         140.5145  143.8871  157.5713 C.3     1  UNL1        0.0286
      8 C         139.5043  143.6067  158.6441 C.3     1  UNL1        0.0359
      9 C         140.1803  142.8106  159.7207 C.3     1  UNL1        0.1466
     10 N         138.7523  143.0222  160.1281 N.am    1  UNL1       -0.2806
     11 C         138.5459  142.3569  161.4565 C.2     1  UNL1        0.3107
     12 O         137.2640  142.3208  162.2347 O.2     1  UNL1       -0.2521
     13 N         139.8462  141.7340  161.8700 N.am    1  UNL1       -0.2035
     14 C         140.8564  142.0144  160.7973 C.2     1  UNL1        0.2528
     15 O         142.2908  141.5756  160.8006 O.2     1  UNL1       -0.2723
     16 H         138.0704  143.5119  159.6139 H       1  UNL1        0.1516
     17 C         148.1328  141.6508  154.4610 C.3     1  UNL1        0.1538
     18 N         147.4068  142.0646  155.7066 N.ar    1  UNL1       -0.2473
     19 C         145.9367  141.9122  155.9622 C.ar    1  UNL1        0.0967
     20 C         145.6448  142.4570  157.3290 C.ar    1  UNL1        0.0396
     21 C         146.9346  142.9462  157.9181 C.ar    1  UNL1        0.1216
     22 N         148.0236  142.7037  156.9155 N.ar    1  UNL1       -0.1676
     23 C         140.0931  140.9657  163.1344 C.3     1  UNL1        0.1874
     24 C         140.8280  141.6100  164.2723 C.2     1  UNL1        0.2469
     25 O         141.8507  142.6727  163.9987 O.2     1  UNL1       -0.2730
     26 N         140.5404  141.1916  165.6837 N.am    1  UNL1       -0.2647
     27 C         141.3298  141.8981  166.7457 C.3     1  UNL1        0.1236
     28 C         141.2752  141.7095  168.2328 C.ar    1  UNL1        0.0339
     29 C         142.2357  142.6217  168.9365 C.ar    1  UNL1        0.0300
     30 C         142.3388  142.5924  170.4327 C.ar    1  UNL1        0.1401
     31 F         143.2992  143.5045  171.1364 F       1  UNL1       -0.2042
     32 C         141.4811  141.6507  171.2251 C.ar    1  UNL1        0.0327
     33 C         140.5206  140.7385  170.5214 C.ar    1  UNL1        0.0389
     34 C         140.4176  140.7679  169.0252 C.ar    1  UNL1        0.1364
     35 O         139.4029  139.7823  168.5263 O.3     1  UNL1       -0.4736
     36 C         138.9951  139.4949  167.1117 C.3     1  UNL1        0.2338
     37 C         139.5013  140.1222  165.8466 C.3     1  UNL1        0.2149
     38 C         138.8874  139.6125  164.5766 C.3     1  UNL1        0.4174
     39 F         138.2734  139.1027  163.3064 F       1  UNL1       -0.1681
     40 F         139.9764  138.5873  164.4615 F       1  UNL1       -0.1681
     41 F         137.7983  140.6375  164.6916 F       1  UNL1       -0.1681
@<TRIPOS>BOND
     1    17    18    1
     2    18    19   ar
     3    19    20   ar
     4    20     1    1
     5     1     2   ar
     6     2     3   ar
     7     3     4   ar
     8     4     5   ar
     9     5     6   ar
    10     5     7    1
    11     7     8    1
    12     9     8    1
    13     9    10    1
    14    10    11   am
    15    11    12    2
    16    11    13   am
    17    13    23    1
    18    23    24    1
    19    24    25    2
    20    24    26   am
    21    26    27    1
    22    27    28    1
    23    28    29   ar
    24    29    30   ar
    25    30    31    1
    26    30    32   ar
    27    32    33   ar
    28    33    34   ar
    29    34    35    1
    30    35    36    1
    31    36    37    1
    32    37    38    1
    33    38    39    1
    34    38    40    1
    35    38    41    1
    36    13    14   am
    37    14    15    2
    38    20    21   ar
    39    21    22   ar
    40    22    18   ar
    41     6     1   ar
    42    14     9    1
    43     9     4    1
    44    37    26    1
    45    34    28   ar
    46    10    16    1
@<TRIPOS>MOLECULE
*****
 41 46 0 0 0
SMALL
GASTEIGER

@<TRIPOS>ATOM
      1 C         141.2112  139.1081  157.6975 C.ar    1  UNL1        0.0027
      2 C         140.8205  139.1999  159.1428 C.ar    1  UNL1       -0.0002
      3 C         140.4844  140.5316  159.7458 C.ar    1  UNL1       -0.0026
      4 C         140.5392  141.7716  158.9034 C.ar    1  UNL1       -0.0019
      5 C         140.9299  141.6798  157.4582 C.ar    1  UNL1       -0.0241
      6 C         141.2659  140.3481  156.8552 C.ar    1  UNL1       -0.0044
      7 C         140.8962  143.0636  156.8802 C.3     1  UNL1        0.0286
      8 C         140.4846  144.0105  157.9682 C.3     1  UNL1        0.0359
      9 C         140.2640  143.2121  159.2187 C.3     1  UNL1        0.1466
     10 N         139.9888  144.6525  159.5339 N.am    1  UNL1       -0.2806
     11 C         139.5980  144.7443  160.9792 C.2     1  UNL1        0.3107
     12 O         139.2370  145.9994  161.7169 O.2     1  UNL1       -0.2521
     13 N         139.6317  143.3605  161.5572 N.am    1  UNL1       -0.2035
     14 C         140.0433  142.4136  160.4692 C.2     1  UNL1        0.2528
     15 O         140.2057  140.9288  160.6074 O.2     1  UNL1       -0.2723
     16 H         140.0533  145.4055  158.9030 H       1  UNL1        0.1516
     17 C         143.7250  134.6126  156.5346 C.3     1  UNL1        0.1538
     18 N         142.7027  135.7100  156.5600 N.ar    1  UNL1       -0.2473
     19 C         142.7776  136.9660  157.3766 C.ar    1  UNL1        0.0967
     20 C         141.5472  137.7764  157.0945 C.ar    1  UNL1        0.0396
     21 C         140.7119  137.0212  156.1036 C.ar    1  UNL1        0.1216
     22 N         141.4260  135.7441  155.7732 N.ar    1  UNL1       -0.1676
     23 C         139.3103  142.9890  162.9744 C.3     1  UNL1        0.1874
     24 C         140.3544  143.1301  164.0420 C.2     1  UNL1        0.2469
     25 O         141.3958  144.2045  163.9353 O.2     1  UNL1       -0.2730
     26 N         140.3573  142.1969  165.2164 N.am    1  UNL1       -0.2647
     27 C         141.4434  142.4243  166.2258 C.3     1  UNL1        0.1236
     28 C         141.7141  141.6706  167.4941 C.ar    1  UNL1        0.0339
     29 C         142.9051  142.2255  168.2177 C.ar    1  UNL1        0.0300
     30 C         143.3477  141.6132  169.5135 C.ar    1  UNL1        0.1401
     31 F         144.5387  142.1680  170.2371 F       1  UNL1       -0.2042
     32 C         142.5992  140.4460  170.0858 C.ar    1  UNL1        0.0327
     33 C         141.4081  139.8911  169.3622 C.ar    1  UNL1        0.0389
     34 C         140.9656  140.5034  168.0663 C.ar    1  UNL1        0.1364
     35 O         139.7615  139.8017  167.5116 O.3     1  UNL1       -0.4736
     36 C         139.0086  140.0937  166.2476 C.3     1  UNL1        0.2338
     37 C         139.2738  141.1597  165.2261 C.3     1  UNL1        0.2149
     38 C         138.3306  141.1929  164.0602 C.3     1  UNL1        0.4174
     39 F         137.3874  141.2262  162.8943 F       1  UNL1       -0.1681
     40 F         137.4774  142.1957  164.7789 F       1  UNL1       -0.1681
     41 F         139.1838  140.1902  163.3414 F       1  UNL1       -0.1681
@<TRIPOS>BOND
     1    17    18    1
     2    18    19   ar
     3    19    20   ar
     4    20     1    1
     5     1     2   ar
     6     2     3   ar
     7     3     4   ar
     8     4     5   ar
     9     5     6   ar
    10     5     7    1
    11     7     8    1
    12     9     8    1
    13     9    10    1
    14    10    11   am
    15    11    12    2
    16    11    13   am
    17    13    23    1
    18    23    24    1
    19    24    25    2
    20    24    26   am
    21    26    27    1
    22    27    28    1
    23    28    29   ar
    24    29    30   ar
    25    30    31    1
    26    30    32   ar
    27    32    33   ar
    28    33    34   ar
    29    34    35    1
    30    35    36    1
    31    36    37    1
    32    37    38    1
    33    38    39    1
    34    38    40    1
    35    38    41    1
    36    13    14   am
    37    14    15    2
    38    20    21   ar
    39    21    22   ar
    40    22    18   ar
    41     6     1   ar
    42    14     9    1
    43     9     4    1
    44    37    26    1
    45    34    28   ar
    46    10    16    1
@<TRIPOS>MOLECULE
*****
 41 46 0 0 0
SMALL
GASTEIGER

@<TRIPOS>ATOM
      1 C         144.0422  142.8431  155.9158 C.ar    1  UNL1        0.0027
      2 C         144.1946  142.6945  157.4006 C.ar    1  UNL1       -0.0002
      3 C         143.2525  143.4057  158.3260 C.ar    1  UNL1       -0.0026
      4 C         142.1579  144.2654  157.7667 C.ar    1  UNL1       -0.0019
      5 C         142.0055  144.4140  156.2819 C.ar    1  UNL1       -0.0241
      6 C         142.9477  143.7028  155.3565 C.ar    1  UNL1       -0.0044
      7 C         140.8401  145.3224  156.0242 C.3     1  UNL1        0.0286
      8 C         140.2722  145.7354  157.3498 C.3     1  UNL1        0.0359
      9 C         141.0867  145.0821  158.4267 C.3     1  UNL1        0.1466
     10 N         140.0154  145.8988  159.0866 N.am    1  UNL1       -0.2806
     11 C         140.1679  145.7503  160.5714 C.2     1  UNL1        0.3107
     12 O         139.3061  146.3967  161.6152 O.2     1  UNL1       -0.2521
     13 N         141.3333  144.8418  160.8291 N.am    1  UNL1       -0.2035
     14 C         141.9011  144.4289  159.5037 C.2     1  UNL1        0.2528
     15 O         143.0771  143.5219  159.2923 O.2     1  UNL1       -0.2723
     16 H         139.3323  146.4377  158.6261 H       1  UNL1        0.1516
     17 C         148.2432  141.7093  152.9245 C.3     1  UNL1        0.1538
     18 N         146.9154  141.6108  153.6153 N.ar    1  UNL1       -0.2473
     19 C         146.3167  142.6414  154.5260 C.ar    1  UNL1        0.0967
     20 C         144.9844  142.1319  154.9902 C.ar    1  UNL1        0.0396
     21 C         144.7597  140.7864  154.3664 C.ar    1  UNL1        0.1216
     22 N         145.9530  140.4643  153.5166 N.ar    1  UNL1       -0.1676
     23 C         141.8416  144.4203  162.1760 C.3     1  UNL1        0.1874
     24 C         140.9733  143.5982  163.0817 C.2     1  UNL1        0.2469
     25 O         139.5494  143.3168  162.7033 O.2     1  UNL1       -0.2730
     26 N         141.5290  143.0576  164.3658 N.am    1  UNL1       -0.2647
     27 C         140.5777  142.2491  165.1973 C.3     1  UNL1        0.1236
     28 C         140.8249  141.5802  166.5170 C.ar    1  UNL1        0.0339
     29 C         139.5991  140.8697  167.0094 C.ar    1  UNL1        0.0300
     30 C         139.6327  140.1337  168.3160 C.ar    1  UNL1        0.1401
     31 F         138.4070  139.4232  168.8084 F       1  UNL1       -0.2042
     32 C         140.8924  140.1082  169.1301 C.ar    1  UNL1        0.0327
     33 C         142.1182  140.8187  168.6377 C.ar    1  UNL1        0.0389
     34 C         142.0845  141.5548  167.3311 C.ar    1  UNL1        0.1364
     35 O         143.4079  142.1918  167.0267 O.3     1  UNL1       -0.4736
     36 C         143.7986  143.0117  165.8329 C.3     1  UNL1        0.2338
     37 C         142.9624  143.3970  164.6487 C.3     1  UNL1        0.2149
     38 C         143.6506  144.2321  163.6101 C.3     1  UNL1        0.4174
     39 F         144.3389  145.0674  162.5714 F       1  UNL1       -0.1681
     40 F         143.2171  145.4779  164.3245 F       1  UNL1       -0.1681
     41 F         144.0841  142.9865  162.8956 F       1  UNL1       -0.1681
@<TRIPOS>BOND
     1    17    18    1
     2    18    19   ar
     3    19    20   ar
     4    20     1    1
     5     1     2   ar
     6     2     3   ar
     7     3     4   ar
     8     4     5   ar
     9     5     6   ar
    10     5     7    1
    11     7     8    1
    12     9     8    1
    13     9    10    1
    14    10    11   am
    15    11    12    2
    16    11    13   am
    17    13    23    1
    18    23    24    1
    19    24    25    2
    20    24    26   am
    21    26    27    1
    22    27    28    1
    23    28    29   ar
    24    29    30   ar
    25    30    31    1
    26    30    32   ar
    27    32    33   ar
    28    33    34   ar
    29    34    35    1
    30    35    36    1
    31    36    37    1
    32    37    38    1
    33    38    39    1
    34    38    40    1
    35    38    41    1
    36    13    14   am
    37    14    15    2
    38    20    21   ar
    39    21    22   ar
    40    22    18   ar
    41     6     1   ar
    42    14     9    1
    43     9     4    1
    44    37    26    1
    45    34    28   ar
    46    10    16    1
@<TRIPOS>MOLECULE
*****
 41 46 0 0 0
SMALL
GASTEIGER

@<TRIPOS>ATOM
      1 C         142.4592  141.2410  166.2999 C.ar    1  UNL1        0.0027
      2 C         141.9188  140.4060  165.1771 C.ar    1  UNL1       -0.0002
      3 C         142.1336  140.8319  163.7550 C.ar    1  UNL1       -0.0026
      4 C         142.8888  142.0928  163.4557 C.ar    1  UNL1       -0.0019
      5 C         143.4292  142.9279  164.5784 C.ar    1  UNL1       -0.0241
      6 C         143.2144  142.5020  166.0005 C.ar    1  UNL1       -0.0044
      7 C         144.1289  144.1122  163.9801 C.3     1  UNL1        0.0286
      8 C         144.0208  144.0091  162.4875 C.3     1  UNL1        0.0359
      9 C         143.2545  142.7610  162.1634 C.3     1  UNL1        0.1466
     10 N         143.6201  143.4293  160.8712 N.am    1  UNL1       -0.2806
     11 C         143.0797  142.5942  159.7485 C.2     1  UNL1        0.3107
     12 O         143.2151  142.8913  158.2844 O.2     1  UNL1       -0.2521
     13 N         142.3801  141.4099  160.3468 N.am    1  UNL1       -0.2035
     14 C         142.4881  141.5130  161.8393 C.2     1  UNL1        0.2528
     15 O         141.9280  140.5391  162.8332 O.2     1  UNL1       -0.2723
     16 H         144.1260  144.2685  160.7766 H       1  UNL1        0.1516
     17 C         141.1113  141.2811  171.4051 C.3     1  UNL1        0.1538
     18 N         141.6248  140.8336  170.0687 N.ar    1  UNL1       -0.2473
     19 C         141.6505  141.6550  168.8138 C.ar    1  UNL1        0.0967
     20 C         142.2444  140.8151  167.7221 C.ar    1  UNL1        0.0396
     21 C         142.5858  139.4746  168.3022 C.ar    1  UNL1        0.1216
     22 N         142.2029  139.4860  169.7524 N.ar    1  UNL1       -0.1676
     23 C         141.6931  140.3148  159.5861 C.3     1  UNL1        0.1874
     24 C         142.4632  139.0999  159.1607 C.2     1  UNL1        0.2469
     25 O         143.7722  138.7740  159.8166 O.2     1  UNL1       -0.2730
     26 N         141.9243  138.2109  158.0793 N.am    1  UNL1       -0.2647
     27 C         142.7719  137.0237  157.7301 C.3     1  UNL1        0.1236
     28 C         142.5137  135.9591  156.7054 C.ar    1  UNL1        0.0339
     29 C         143.6203  134.9469  156.6759 C.ar    1  UNL1        0.0300
     30 C         143.5573  133.7944  155.7180 C.ar    1  UNL1        0.1401
     31 F         144.6639  132.7822  155.6884 F       1  UNL1       -0.2042
     32 C         142.3875  133.6540  154.7895 C.ar    1  UNL1        0.0327
     33 C         141.2808  134.6661  154.8190 C.ar    1  UNL1        0.0389
     34 C         141.3439  135.8187  155.7770 C.ar    1  UNL1        0.1364
     35 O         140.1436  136.7083  155.6439 O.3     1  UNL1       -0.4736
     36 C         139.8165  137.9579  156.4064 C.3     1  UNL1        0.2338
     37 C         140.6090  138.6267  157.4902 C.3     1  UNL1        0.2149
     38 C         140.0065  139.8764  158.0603 C.3     1  UNL1        0.4174
     39 F         139.4039  141.1262  158.6306 F       1  UNL1       -0.1681
     40 F         139.2624  139.0561  159.0721 F       1  UNL1       -0.1681
     41 F         140.7505  140.6967  157.0487 F       1  UNL1       -0.1681
@<TRIPOS>BOND
     1    17    18    1
     2    18    19   ar
     3    19    20   ar
     4    20     1    1
     5     1     2   ar
     6     2     3   ar
     7     3     4   ar
     8     4     5   ar
     9     5     6   ar
    10     5     7    1
    11     7     8    1
    12     9     8    1
    13     9    10    1
    14    10    11   am
    15    11    12    2
    16    11    13   am
    17    13    23    1
    18    23    24    1
    19    24    25    2
    20    24    26   am
    21    26    27    1
    22    27    28    1
    23    28    29   ar
    24    29    30   ar
    25    30    31    1
    26    30    32   ar
    27    32    33   ar
    28    33    34   ar
    29    34    35    1
    30    35    36    1
    31    36    37    1
    32    37    38    1
    33    38    39    1
    34    38    40    1
    35    38    41    1
    36    13    14   am
    37    14    15    2
    38    20    21   ar
    39    21    22   ar
    40    22    18   ar
    41     6     1   ar
    42    14     9    1
    43     9     4    1
    44    37    26    1
    45    34    28   ar
    46    10    16    1
@<TRIPOS>MOLECULE
*****
 41 46 0 0 0
SMALL
GASTEIGER

@<TRIPOS>ATOM
      1 C         141.6847  141.9877  166.2218 C.ar    1  UNL1        0.0027
      2 C         142.2709  141.5089  164.9268 C.ar    1  UNL1       -0.0002
      3 C         141.7764  142.0703  163.6267 C.ar    1  UNL1       -0.0026
      4 C         140.6957  143.1105  163.6216 C.ar    1  UNL1       -0.0019
      5 C         140.1096  143.5894  164.9166 C.ar    1  UNL1       -0.0241
      6 C         140.6040  143.0280  166.2167 C.ar    1  UNL1       -0.0044
      7 C         139.0635  144.6168  164.6000 C.3     1  UNL1        0.0286
      8 C         139.0032  144.7729  163.1094 C.3     1  UNL1        0.0359
      9 C         140.0120  143.8420  162.5046 C.3     1  UNL1        0.1466
     10 N         139.3282  144.5735  161.3878 N.am    1  UNL1       -0.2806
     11 C         139.9144  144.0946  160.0928 C.2     1  UNL1        0.3107
     12 O         139.5232  144.5613  158.7220 O.2     1  UNL1       -0.2521
     13 N         140.9604  143.0672  160.4093 N.am    1  UNL1       -0.2035
     14 C         141.0207  142.9111  161.8999 C.2     1  UNL1        0.2528
     15 O         141.9302  141.9863  162.6534 O.2     1  UNL1       -0.2723
     16 H         138.6192  145.2493  161.4872 H       1  UNL1        0.1516
     17 C         142.6688  138.6669  170.2074 C.3     1  UNL1        0.1538
     18 N         142.6315  139.8999  169.3539 N.ar    1  UNL1       -0.2473
     19 C         141.9706  140.0244  168.0132 C.ar    1  UNL1        0.0967
     20 C         142.1792  141.4263  167.5219 C.ar    1  UNL1        0.0396
     21 C         142.9690  142.1682  168.5591 C.ar    1  UNL1        0.1216
     22 N         143.2486  141.2248  169.6913 N.ar    1  UNL1       -0.1676
     23 C         141.7989  142.3261  159.4105 C.3     1  UNL1        0.1874
     24 C         141.3948  140.9521  158.9645 C.2     1  UNL1        0.2469
     25 O         140.0972  140.3630  159.4325 O.2     1  UNL1       -0.2730
     26 N         142.2884  140.1673  158.0503 N.am    1  UNL1       -0.2647
     27 C         141.7909  138.8056  157.6651 C.3     1  UNL1        0.1236
     28 C         142.4434  137.7882  156.7767 C.ar    1  UNL1        0.0339
     29 C         141.6050  136.5506  156.6531 C.ar    1  UNL1        0.0300
     30 C         142.0777  135.4059  155.8068 C.ar    1  UNL1        0.1401
     31 F         141.2394  134.1682  155.6831 F       1  UNL1       -0.2042
     32 C         143.3889  135.4989  155.0841 C.ar    1  UNL1        0.0327
     33 C         144.2273  136.7366  155.2078 C.ar    1  UNL1        0.0389
     34 C         143.7545  137.8813  156.0541 C.ar    1  UNL1        0.1364
     35 O         144.7370  139.0147  156.0414 O.3     1  UNL1       -0.4736
     36 C         144.6510  140.3349  156.7482 C.3     1  UNL1        0.2338
     37 C         143.5612  140.8478  157.6422 C.3     1  UNL1        0.2149
     38 C         143.7723  142.2232  158.2022 C.3     1  UNL1        0.4174
     39 F         143.9834  143.5987  158.7624 F       1  UNL1       -0.1681
     40 F         144.4522  141.6309  159.4010 F       1  UNL1       -0.1681
     41 F         143.0924  142.8157  157.0036 F       1  UNL1       -0.1681
@<TRIPOS>BOND
     1    17    18    1
     2    18    19   ar
     3    19    20   ar
     4    20     1    1
     5     1     2   ar
     6     2     3   ar
     7     3     4   ar
     8     4     5   ar
     9     5     6   ar
    10     5     7    1
    11     7     8    1
    12     9     8    1
    13     9    10    1
    14    10    11   am
    15    11    12    2
    16    11    13   am
    17    13    23    1
    18    23    24    1
    19    24    25    2
    20    24    26   am
    21    26    27    1
    22    27    28    1
    23    28    29   ar
    24    29    30   ar
    25    30    31    1
    26    30    32   ar
    27    32    33   ar
    28    33    34   ar
    29    34    35    1
    30    35    36    1
    31    36    37    1
    32    37    38    1
    33    38    39    1
    34    38    40    1
    35    38    41    1
    36    13    14   am
    37    14    15    2
    38    20    21   ar
    39    21    22   ar
    40    22    18   ar
    41     6     1   ar
    42    14     9    1
    43     9     4    1
    44    37    26    1
    45    34    28   ar
    46    10    16    1
@<TRIPOS>MOLECULE
*****
 41 46 0 0 0
SMALL
GASTEIGER

@<TRIPOS>ATOM
      1 C         142.3049  141.3878  165.0274 C.ar    1  UNL1        0.0027
      2 C         142.6930  140.9633  163.6422 C.ar    1  UNL1       -0.0002
      3 C         142.4458  141.8790  162.4802 C.ar    1  UNL1       -0.0026
      4 C         141.8104  143.2193  162.7036 C.ar    1  UNL1       -0.0019
      5 C         141.4222  143.6438  164.0889 C.ar    1  UNL1       -0.0241
      6 C         141.6694  142.7280  165.2508 C.ar    1  UNL1       -0.0044
      7 C         140.8176  145.0138  164.0015 C.3     1  UNL1        0.0286
      8 C         140.8321  145.4360  162.5622 C.3     1  UNL1        0.0359
      9 C         141.4457  144.3270  161.7600 C.3     1  UNL1        0.1466
     10 N         141.0810  145.4346  160.8165 N.am    1  UNL1       -0.2806
     11 C         141.4691  145.0101  159.4312 C.2     1  UNL1        0.3107
     12 O         141.2850  145.8144  158.1786 O.2     1  UNL1       -0.2521
     13 N         142.0737  143.6401  159.5186 N.am    1  UNL1       -0.2035
     14 C         142.0592  143.2179  160.9578 C.2     1  UNL1        0.2528
     15 O         142.5689  141.9153  161.4997 O.2     1  UNL1       -0.2723
     16 H         140.6606  146.2900  161.0632 H       1  UNL1        0.1516
     17 C         142.3606  139.3666  169.9053 C.3     1  UNL1        0.1538
     18 N         142.5777  139.5430  168.4316 N.ar    1  UNL1       -0.2473
     19 C         142.1233  140.7107  167.6070 C.ar    1  UNL1        0.0967
     20 C         142.5521  140.4720  166.1895 C.ar    1  UNL1        0.0396
     21 C         143.2715  139.1567  166.1381 C.ar    1  UNL1        0.1216
     22 N         143.2873  138.5826  167.5237 N.ar    1  UNL1       -0.1676
     23 C         142.6004  142.8339  158.3685 C.3     1  UNL1        0.1874
     24 C         144.0796  142.6627  158.1877 C.2     1  UNL1        0.2469
     25 O         144.9880  142.6794  159.3812 O.2     1  UNL1       -0.2730
     26 N         144.6503  142.4749  156.8133 N.am    1  UNL1       -0.2647
     27 C         146.1400  142.3130  156.7437 C.3     1  UNL1        0.1236
     28 C         147.0032  142.1100  155.5339 C.ar    1  UNL1        0.0339
     29 C         148.4513  141.9938  155.9072 C.ar    1  UNL1        0.0300
     30 C         149.4863  141.7864  154.8415 C.ar    1  UNL1        0.1401
     31 F         150.9344  141.6702  155.2148 F       1  UNL1       -0.2042
     32 C         149.0731  141.6952  153.4024 C.ar    1  UNL1        0.0327
     33 C         147.6250  141.8114  153.0290 C.ar    1  UNL1        0.0389
     34 C         146.5900  142.0188  154.0948 C.ar    1  UNL1        0.1364
     35 O         145.2115  142.1080  153.5102 O.3     1  UNL1       -0.4736
     36 C         143.9058  142.3105  154.2201 C.3     1  UNL1        0.2338
     37 C         143.6561  142.4738  155.6902 C.3     1  UNL1        0.2149
     38 C         142.2225  142.6606  156.0900 C.3     1  UNL1        0.4174
     39 F         140.7888  142.8474  156.4898 F       1  UNL1       -0.1681
     40 F         142.0776  141.1777  156.2637 F       1  UNL1       -0.1681
     41 F         142.3673  144.1435  155.9163 F       1  UNL1       -0.1681
@<TRIPOS>BOND
     1    17    18    1
     2    18    19   ar
     3    19    20   ar
     4    20     1    1
     5     1     2   ar
     6     2     3   ar
     7     3     4   ar
     8     4     5   ar
     9     5     6   ar
    10     5     7    1
    11     7     8    1
    12     9     8    1
    13     9    10    1
    14    10    11   am
    15    11    12    2
    16    11    13   am
    17    13    23    1
    18    23    24    1
    19    24    25    2
    20    24    26   am
    21    26    27    1
    22    27    28    1
    23    28    29   ar
    24    29    30   ar
    25    30    31    1
    26    30    32   ar
    27    32    33   ar
    28    33    34   ar
    29    34    35    1
    30    35    36    1
    31    36    37    1
    32    37    38    1
    33    38    39    1
    34    38    40    1
    35    38    41    1
    36    13    14   am
    37    14    15    2
    38    20    21   ar
    39    21    22   ar
    40    22    18   ar
    41     6     1   ar
    42    14     9    1
    43     9     4    1
    44    37    26    1
    45    34    28   ar
    46    10    16    1
