@<TRIPOS>MOLECULE
*****
 30 33 0 0 0
SMALL
GASTEIGER

@<TRIPOS>ATOM
      1 C         139.0585  141.0144  164.0088 C.ar    1  UNL1        0.0686
      2 C         139.2988  139.5506  164.2315 C.ar    1  UNL1        0.1045
      3 N         139.9027  139.0773  165.5204 N.ar    1  UNL1       -0.2290
      4 C         140.2664  140.0678  166.5866 C.ar    1  UNL1        0.1319
      5 C         140.0261  141.5316  166.3639 C.ar    1  UNL1        0.0303
      6 C         139.4221  142.0049  165.0749 C.ar    1  UNL1       -0.0138
      7 O         136.9971  141.8372  162.6584 O.2     1  UNL1       -0.2701
      8 C         138.4545  141.4877  162.7200 C.2     1  UNL1        0.2471
      9 N         139.3080  141.6115  161.4926 N.am    1  UNL1       -0.3008
     10 H         140.2645  141.3821  161.5330 H       1  UNL1        0.1497
     11 C         138.7040  142.0848  160.2038 C.3     1  UNL1        0.0898
     12 C         139.3337  143.2205  159.4528 C.3     1  UNL1        0.0246
     13 C         139.2039  143.2963  157.9604 C.3     1  UNL1        0.0338
     14 C         139.8336  144.4318  157.2095 C.3     1  UNL1        0.1422
     15 O         140.5932  145.4916  157.9511 O.3     1  UNL1       -0.3538
     16 C         140.7230  145.4158  159.4435 C.3     1  UNL1        0.1422
     17 C         140.0933  144.2803  160.1943 C.3     1  UNL1        0.0338
     18 C         139.1819  143.4687  164.8522 C.3     1  UNL1        0.0226
     19 C         139.2929  144.6857  163.9825 C.3     1  UNL1        0.0047
     20 C         138.6546  144.7869  165.3361 C.3     1  UNL1        0.0047
     21 N         140.8704  139.5945  167.8754 N.pl3   1  UNL1       -0.2973
     22 H         140.9849  138.6308  168.0407 H       1  UNL1        0.1536
     23 C         141.2998  140.5896  168.9125 C.ar    1  UNL1        0.0609
     24 C         142.7009  141.1250  168.9033 C.ar    1  UNL1        0.0269
     25 C         143.1303  142.1201  169.9404 C.ar    1  UNL1        0.0590
     26 CL        144.5315  142.6556  169.9312 Cl      1  UNL1       -0.0822
     27 C         142.1587  142.5796  170.9866 C.ar    1  UNL1        0.0123
     28 C         140.7576  142.0442  170.9958 C.ar    1  UNL1        0.0135
     29 C         140.3281  141.0491  169.9587 C.ar    1  UNL1        0.0711
     30 CL        138.9270  140.5136  169.9679 Cl      1  UNL1       -0.0810
@<TRIPOS>BOND
     1     7     8    2
     2     8     9   am
     3     9    11    1
     4    11    12    1
     5    12    13    1
     6    13    14    1
     7    14    15    1
     8    15    16    1
     9    16    17    1
    10     8     1    1
    11     1     2   ar
    12     2     3   ar
    13     3     4   ar
    14     4    21    1
    15    21    23    1
    16    23    24   ar
    17    24    25   ar
    18    25    26    1
    19    25    27   ar
    20    27    28   ar
    21    28    29   ar
    22    29    30    1
    23     4     5   ar
    24     5     6   ar
    25     6    18    1
    26    18    19    1
    27    19    20    1
    28    17    12    1
    29     6     1   ar
    30    20    18    1
    31    29    23   ar
    32     9    10    1
    33    21    22    1
@<TRIPOS>MOLECULE
*****
 30 33 0 0 0
SMALL
GASTEIGER

@<TRIPOS>ATOM
      1 C         141.4700  144.4639  162.9586 C.ar    1  UNL1        0.0686
      2 C         142.8855  144.5116  163.4527 C.ar    1  UNL1        0.1045
      3 N         143.2755  143.7515  164.6856 N.ar    1  UNL1       -0.2290
      4 C         142.2500  142.9436  165.4244 C.ar    1  UNL1        0.1319
      5 C         140.8346  142.8958  164.9303 C.ar    1  UNL1        0.0303
      6 C         140.4446  143.6560  163.6973 C.ar    1  UNL1       -0.0138
      7 O         140.0646  146.3246  161.8130 O.2     1  UNL1       -0.2701
      8 C         141.0800  145.2240  161.7257 C.2     1  UNL1        0.2471
      9 N         141.7053  144.8835  160.4054 N.am    1  UNL1       -0.3008
     10 H         142.3718  144.1611  160.3481 H       1  UNL1        0.1497
     11 C         141.3153  145.6436  159.1725 C.3     1  UNL1        0.0898
     12 C         140.3712  145.0308  158.1809 C.3     1  UNL1        0.0246
     13 C         139.7097  143.7197  158.4863 C.3     1  UNL1        0.0338
     14 C         138.7657  143.1070  157.4947 C.3     1  UNL1        0.1422
     15 O         138.4832  143.8054  156.1976 O.3     1  UNL1       -0.3538
     16 C         139.1447  145.1165  155.8921 C.3     1  UNL1        0.1422
     17 C         140.0887  145.7292  156.8838 C.3     1  UNL1        0.0338
     18 C         139.0291  143.6082  163.2031 C.3     1  UNL1        0.0226
     19 C         137.6292  144.1466  163.2180 C.3     1  UNL1        0.0047
     20 C         137.9775  142.9871  162.3324 C.3     1  UNL1        0.0047
     21 N         142.6401  142.1835  166.6573 N.pl3   1  UNL1       -0.2973
     22 H         143.5866  141.9719  166.8263 H       1  UNL1        0.1536
     23 C         141.5880  141.7457  167.6327 C.ar    1  UNL1        0.0609
     24 C         141.1502  142.6709  168.7292 C.ar    1  UNL1        0.0269
     25 C         140.0981  142.2331  169.7046 C.ar    1  UNL1        0.0590
     26 CL        139.6604  143.1584  170.8011 Cl      1  UNL1       -0.0822
     27 C         139.4838  140.8701  169.5836 C.ar    1  UNL1        0.0123
     28 C         139.9215  139.9449  168.4871 C.ar    1  UNL1        0.0135
     29 C         140.9736  140.3827  167.5117 C.ar    1  UNL1        0.0711
     30 CL        141.4113  139.4573  166.4151 Cl      1  UNL1       -0.0810
@<TRIPOS>BOND
     1     7     8    2
     2     8     9   am
     3     9    11    1
     4    11    12    1
     5    12    13    1
     6    13    14    1
     7    14    15    1
     8    15    16    1
     9    16    17    1
    10     8     1    1
    11     1     2   ar
    12     2     3   ar
    13     3     4   ar
    14     4    21    1
    15    21    23    1
    16    23    24   ar
    17    24    25   ar
    18    25    26    1
    19    25    27   ar
    20    27    28   ar
    21    28    29   ar
    22    29    30    1
    23     4     5   ar
    24     5     6   ar
    25     6    18    1
    26    18    19    1
    27    19    20    1
    28    17    12    1
    29     6     1   ar
    30    20    18    1
    31    29    23   ar
    32     9    10    1
    33    21    22    1
@<TRIPOS>MOLECULE
*****
 30 33 0 0 0
SMALL
GASTEIGER

@<TRIPOS>ATOM
      1 C         140.2864  142.8725  162.1024 C.ar    1  UNL1        0.0686
      2 C         139.3626  141.7061  161.9122 C.ar    1  UNL1        0.1045
      3 N         139.4551  140.5195  162.8251 N.ar    1  UNL1       -0.2290
      4 C         140.4715  140.4991  163.9281 C.ar    1  UNL1        0.1319
      5 C         141.3953  141.6655  164.1182 C.ar    1  UNL1        0.0303
      6 C         141.3028  142.8521  163.2053 C.ar    1  UNL1       -0.0138
      7 O         139.2057  145.1506  161.4761 O.2     1  UNL1       -0.2701
      8 C         140.1939  144.0591  161.1896 C.2     1  UNL1        0.2471
      9 N         141.0897  144.1543  159.9901 N.am    1  UNL1       -0.3008
     10 H         141.7383  143.4380  159.8020 H       1  UNL1        0.1497
     11 C         140.9972  145.3410  159.0773 C.3     1  UNL1        0.0898
     12 C         140.1667  145.2652  157.8304 C.3     1  UNL1        0.0246
     13 C         139.9071  146.5041  157.0257 C.3     1  UNL1        0.0338
     14 C         139.0767  146.4283  155.7789 C.3     1  UNL1        0.1422
     15 O         138.5058  145.1135  155.3368 O.3     1  UNL1       -0.3538
     16 C         138.7653  143.8745  156.1415 C.3     1  UNL1        0.1422
     17 C         139.5958  143.9504  157.3883 C.3     1  UNL1        0.0338
     18 C         142.2267  144.0185  163.3954 C.3     1  UNL1        0.0226
     19 C         142.4659  145.4233  163.8635 C.3     1  UNL1        0.0047
     20 C         143.5876  144.6337  163.2567 C.3     1  UNL1        0.0047
     21 N         140.5640  139.3125  164.8409 N.pl3   1  UNL1       -0.2973
     22 H         140.4258  138.4053  164.4844 H       1  UNL1        0.1536
     23 C         140.8670  139.5081  166.2969 C.ar    1  UNL1        0.0609
     24 C         139.7688  139.8812  167.2480 C.ar    1  UNL1        0.0269
     25 C         140.0718  140.0768  168.7040 C.ar    1  UNL1        0.0590
     26 CL        138.9735  140.4500  169.6551 Cl      1  UNL1       -0.0822
     27 C         141.4730  139.8992  169.2089 C.ar    1  UNL1        0.0123
     28 C         142.5712  139.5260  168.2578 C.ar    1  UNL1        0.0135
     29 C         142.2682  139.3305  166.8018 C.ar    1  UNL1        0.0711
     30 CL        143.3665  138.9573  165.8507 Cl      1  UNL1       -0.0810
@<TRIPOS>BOND
     1     7     8    2
     2     8     9   am
     3     9    11    1
     4    11    12    1
     5    12    13    1
     6    13    14    1
     7    14    15    1
     8    15    16    1
     9    16    17    1
    10     8     1    1
    11     1     2   ar
    12     2     3   ar
    13     3     4   ar
    14     4    21    1
    15    21    23    1
    16    23    24   ar
    17    24    25   ar
    18    25    26    1
    19    25    27   ar
    20    27    28   ar
    21    28    29   ar
    22    29    30    1
    23     4     5   ar
    24     5     6   ar
    25     6    18    1
    26    18    19    1
    27    19    20    1
    28    17    12    1
    29     6     1   ar
    30    20    18    1
    31    29    23   ar
    32     9    10    1
    33    21    22    1
@<TRIPOS>MOLECULE
*****
 30 33 0 0 0
SMALL
GASTEIGER

@<TRIPOS>ATOM
      1 C         142.3793  142.9262  164.5834 C.ar    1  UNL1        0.0686
      2 C         141.2063  143.8573  164.4999 C.ar    1  UNL1        0.1045
      3 N         140.9499  144.6294  163.2397 N.ar    1  UNL1       -0.2290
      4 C         141.8665  144.4704  162.0630 C.ar    1  UNL1        0.1319
      5 C         143.0396  143.5393  162.1466 C.ar    1  UNL1        0.0303
      6 C         143.2959  142.7671  163.4068 C.ar    1  UNL1       -0.0138
      7 O         143.5746  142.6986  166.8790 O.2     1  UNL1       -0.2701
      8 C         142.6357  142.1541  165.8436 C.2     1  UNL1        0.2471
      9 N         141.9533  140.8373  166.0684 N.am    1  UNL1       -0.3008
     10 H         141.3371  140.4799  165.3889 H       1  UNL1        0.1497
     11 C         142.2097  140.0652  167.3286 C.3     1  UNL1        0.0898
     12 C         141.4447  140.3916  168.5770 C.3     1  UNL1        0.0246
     13 C         139.9501  140.2655  168.5953 C.3     1  UNL1        0.0338
     14 C         139.1853  140.5919  169.8436 C.3     1  UNL1        0.1422
     15 O         139.9149  141.0443  171.0736 O.3     1  UNL1       -0.3538
     16 C         141.4095  141.1703  171.0553 C.3     1  UNL1        0.1422
     17 C         142.1744  140.8439  169.8070 C.3     1  UNL1        0.0338
     18 C         144.4689  141.8360  163.4903 C.3     1  UNL1        0.0226
     19 C         145.0193  140.4417  163.5457 C.3     1  UNL1        0.0047
     20 C         145.9502  141.6175  163.5797 C.3     1  UNL1        0.0047
     21 N         141.6101  145.2425  160.8028 N.pl3   1  UNL1       -0.2973
     22 H         141.9110  146.1770  160.7283 H       1  UNL1        0.1536
     23 C         140.8954  144.5910  159.6563 C.ar    1  UNL1        0.0609
     24 C         139.8798  143.5185  159.9177 C.ar    1  UNL1        0.0269
     25 C         139.1650  142.8669  158.7712 C.ar    1  UNL1        0.0590
     26 CL        138.1495  141.7943  159.0326 Cl      1  UNL1       -0.0822
     27 C         139.4658  143.2878  157.3632 C.ar    1  UNL1        0.0123
     28 C         140.4813  144.3603  157.1018 C.ar    1  UNL1        0.0135
     29 C         141.1961  145.0119  158.2484 C.ar    1  UNL1        0.0711
     30 CL        142.2117  146.0845  157.9869 Cl      1  UNL1       -0.0810
@<TRIPOS>BOND
     1     7     8    2
     2     8     9   am
     3     9    11    1
     4    11    12    1
     5    12    13    1
     6    13    14    1
     7    14    15    1
     8    15    16    1
     9    16    17    1
    10     8     1    1
    11     1     2   ar
    12     2     3   ar
    13     3     4   ar
    14     4    21    1
    15    21    23    1
    16    23    24   ar
    17    24    25   ar
    18    25    26    1
    19    25    27   ar
    20    27    28   ar
    21    28    29   ar
    22    29    30    1
    23     4     5   ar
    24     5     6   ar
    25     6    18    1
    26    18    19    1
    27    19    20    1
    28    17    12    1
    29     6     1   ar
    30    20    18    1
    31    29    23   ar
    32     9    10    1
    33    21    22    1
@<TRIPOS>MOLECULE
*****
 30 33 0 0 0
SMALL
GASTEIGER

@<TRIPOS>ATOM
      1 C         139.1098  141.1576  163.9652 C.ar    1  UNL1        0.0686
      2 C         139.3319  142.0975  165.1129 C.ar    1  UNL1        0.1045
      3 N         139.8895  141.5827  166.4068 N.ar    1  UNL1       -0.2290
      4 C         140.2250  140.1279  166.5529 C.ar    1  UNL1        0.1319
      5 C         140.0029  139.1881  165.4051 C.ar    1  UNL1        0.0303
      6 C         139.4453  139.7030  164.1112 C.ar    1  UNL1       -0.0138
      7 O         137.0708  141.6632  162.4366 O.2     1  UNL1       -0.2701
      8 C         138.5523  141.6725  162.6713 C.2     1  UNL1        0.2471
      9 N         139.4762  142.1965  161.6122 N.am    1  UNL1       -0.3008
     10 H         140.4486  142.2026  161.7662 H       1  UNL1        0.1497
     11 C         138.9187  142.7113  160.3183 C.3     1  UNL1        0.0898
     12 C         138.7098  141.7741  159.1659 C.3     1  UNL1        0.0246
     13 C         139.3069  140.3985  159.2002 C.3     1  UNL1        0.0338
     14 C         139.0980  139.4614  158.0478 C.3     1  UNL1        0.1422
     15 O         138.2921  139.8999  156.8611 O.3     1  UNL1       -0.3538
     16 C         137.6951  141.2755  156.8268 C.3     1  UNL1        0.1422
     17 C         137.9039  142.2126  157.9792 C.3     1  UNL1        0.0338
     18 C         139.2232  138.7631  162.9635 C.3     1  UNL1        0.0226
     19 C         139.7726  137.8752  161.8866 C.3     1  UNL1        0.0047
     20 C         138.2891  138.0233  162.0524 C.3     1  UNL1        0.0047
     21 N         140.7825  139.6131  167.8467 N.pl3   1  UNL1       -0.2973
     22 H         140.8497  138.6434  168.0026 H       1  UNL1        0.1536
     23 C         141.2377  140.5758  168.9031 C.ar    1  UNL1        0.0609
     24 C         142.6379  141.1132  168.8751 C.ar    1  UNL1        0.0269
     25 C         143.0931  142.0759  169.9315 C.ar    1  UNL1        0.0590
     26 CL        144.4933  142.6132  169.9034 Cl      1  UNL1       -0.0822
     27 C         142.1481  142.5012  171.0160 C.ar    1  UNL1        0.0123
     28 C         140.7480  141.9639  171.0440 C.ar    1  UNL1        0.0135
     29 C         140.2928  141.0012  169.9876 C.ar    1  UNL1        0.0711
     30 CL        138.8925  140.4639  170.0157 Cl      1  UNL1       -0.0810
@<TRIPOS>BOND
     1     7     8    2
     2     8     9   am
     3     9    11    1
     4    11    12    1
     5    12    13    1
     6    13    14    1
     7    14    15    1
     8    15    16    1
     9    16    17    1
    10     8     1    1
    11     1     2   ar
    12     2     3   ar
    13     3     4   ar
    14     4    21    1
    15    21    23    1
    16    23    24   ar
    17    24    25   ar
    18    25    26    1
    19    25    27   ar
    20    27    28   ar
    21    28    29   ar
    22    29    30    1
    23     4     5   ar
    24     5     6   ar
    25     6    18    1
    26    18    19    1
    27    19    20    1
    28    17    12    1
    29     6     1   ar
    30    20    18    1
    31    29    23   ar
    32     9    10    1
    33    21    22    1
@<TRIPOS>MOLECULE
*****
 30 33 0 0 0
SMALL
GASTEIGER

@<TRIPOS>ATOM
      1 C         142.3654  139.4732  165.5046 C.ar    1  UNL1        0.0686
      2 C         143.4258  139.2340  164.4709 C.ar    1  UNL1        0.1045
      3 N         143.0579  138.6452  163.1414 N.ar    1  UNL1       -0.2290
      4 C         141.6295  138.2954  162.8454 C.ar    1  UNL1        0.1319
      5 C         140.5692  138.5345  163.8791 C.ar    1  UNL1        0.0303
      6 C         140.9371  139.1234  165.2087 C.ar    1  UNL1       -0.0138
      7 O         143.0789  139.1620  167.9833 O.2     1  UNL1       -0.2701
      8 C         142.7334  140.0620  166.8342 C.2     1  UNL1        0.2471
      9 N         142.7557  141.5510  167.0147 N.am    1  UNL1       -0.3008
     10 H         142.5289  142.1417  166.2604 H       1  UNL1        0.1497
     11 C         143.1237  142.1399  168.3442 C.3     1  UNL1        0.0898
     12 C         142.1010  142.2179  169.4388 C.3     1  UNL1        0.0246
     13 C         140.9913  143.2239  169.3582 C.3     1  UNL1        0.0338
     14 C         139.9687  143.3019  170.4528 C.3     1  UNL1        0.1422
     15 O         140.0558  142.3738  171.6280 O.3     1  UNL1       -0.3538
     16 C         141.1654  141.3678  171.7086 C.3     1  UNL1        0.1422
     17 C         142.1880  141.2898  170.6141 C.3     1  UNL1        0.0338
     18 C         139.8768  139.3625  166.2424 C.3     1  UNL1        0.0226
     19 C         138.4726  139.1669  166.7322 C.3     1  UNL1        0.0047
     20 C         139.4444  139.9723  167.5428 C.3     1  UNL1        0.0047
     21 N         141.2616  137.7065  161.5158 N.pl3   1  UNL1       -0.2973
     22 H         141.2525  136.7294  161.3958 H       1  UNL1        0.1536
     23 C         140.9076  138.6063  160.3691 C.ar    1  UNL1        0.0609
     24 C         139.4863  139.0417  160.1685 C.ar    1  UNL1        0.0269
     25 C         139.1323  139.9416  159.0218 C.ar    1  UNL1        0.0590
     26 CL        137.7109  140.3770  158.8212 Cl      1  UNL1       -0.0822
     27 C         140.1996  140.4060  158.0757 C.ar    1  UNL1        0.0123
     28 C         141.6209  139.9706  158.2763 C.ar    1  UNL1        0.0135
     29 C         141.9749  139.0708  159.4230 C.ar    1  UNL1        0.0711
     30 CL        143.3963  138.6354  159.6236 Cl      1  UNL1       -0.0810
@<TRIPOS>BOND
     1     7     8    2
     2     8     9   am
     3     9    11    1
     4    11    12    1
     5    12    13    1
     6    13    14    1
     7    14    15    1
     8    15    16    1
     9    16    17    1
    10     8     1    1
    11     1     2   ar
    12     2     3   ar
    13     3     4   ar
    14     4    21    1
    15    21    23    1
    16    23    24   ar
    17    24    25   ar
    18    25    26    1
    19    25    27   ar
    20    27    28   ar
    21    28    29   ar
    22    29    30    1
    23     4     5   ar
    24     5     6   ar
    25     6    18    1
    26    18    19    1
    27    19    20    1
    28    17    12    1
    29     6     1   ar
    30    20    18    1
    31    29    23   ar
    32     9    10    1
    33    21    22    1
@<TRIPOS>MOLECULE
*****
 30 33 0 0 0
SMALL
GASTEIGER

@<TRIPOS>ATOM
      1 C         141.1258  142.7626  163.2240 C.ar    1  UNL1        0.0686
      2 C         142.0623  142.4191  162.1038 C.ar    1  UNL1        0.1045
      3 N         141.9661  143.1470  160.7959 N.ar    1  UNL1       -0.2290
      4 C         140.9333  144.2186  160.6081 C.ar    1  UNL1        0.1319
      5 C         139.9968  144.5621  161.7283 C.ar    1  UNL1        0.0303
      6 C         140.0930  143.8341  163.0363 C.ar    1  UNL1       -0.0138
      7 O         140.1273  141.0990  164.9518 O.2     1  UNL1       -0.2701
      8 C         141.2220  142.0346  164.5319 C.2     1  UNL1        0.2471
      9 N         142.4129  142.2422  165.4201 N.am    1  UNL1       -0.3008
     10 H         143.1314  142.8563  165.1445 H       1  UNL1        0.1497
     11 C         142.5091  141.5142  166.7280 C.3     1  UNL1        0.0898
     12 C         142.1445  142.2133  168.0041 C.3     1  UNL1        0.0246
     13 C         143.1569  142.3448  169.1030 C.3     1  UNL1        0.0338
     14 C         142.7922  143.0439  170.3790 C.3     1  UNL1        0.1422
     15 O         141.4151  143.6114  170.5561 O.3     1  UNL1       -0.3538
     16 C         140.4026  143.4799  169.4572 C.3     1  UNL1        0.1422
     17 C         140.7673  142.7809  168.1812 C.3     1  UNL1        0.0338
     18 C         139.1565  144.1776  164.1565 C.3     1  UNL1        0.0226
     19 C         138.8983  144.8419  165.4764 C.3     1  UNL1        0.0047
     20 C         137.7926  144.1082  164.7770 C.3     1  UNL1        0.0047
     21 N         140.8371  144.9466  159.3002 N.pl3   1  UNL1       -0.2973
     22 H         141.3324  145.7869  159.1669 H       1  UNL1        0.1536
     23 C         139.9862  144.3943  158.1952 C.ar    1  UNL1        0.0609
     24 C         139.1799  143.1496  158.4201 C.ar    1  UNL1        0.0269
     25 C         138.3290  142.5973  157.3152 C.ar    1  UNL1        0.0590
     26 CL        137.5227  141.3525  157.5401 Cl      1  UNL1       -0.0822
     27 C         138.2844  143.2897  155.9853 C.ar    1  UNL1        0.0123
     28 C         139.0907  144.5344  155.7604 C.ar    1  UNL1        0.0135
     29 C         139.9416  145.0867  156.8654 C.ar    1  UNL1        0.0711
     30 CL        140.7479  146.3314  156.6404 Cl      1  UNL1       -0.0810
@<TRIPOS>BOND
     1     7     8    2
     2     8     9   am
     3     9    11    1
     4    11    12    1
     5    12    13    1
     6    13    14    1
     7    14    15    1
     8    15    16    1
     9    16    17    1
    10     8     1    1
    11     1     2   ar
    12     2     3   ar
    13     3     4   ar
    14     4    21    1
    15    21    23    1
    16    23    24   ar
    17    24    25   ar
    18    25    26    1
    19    25    27   ar
    20    27    28   ar
    21    28    29   ar
    22    29    30    1
    23     4     5   ar
    24     5     6   ar
    25     6    18    1
    26    18    19    1
    27    19    20    1
    28    17    12    1
    29     6     1   ar
    30    20    18    1
    31    29    23   ar
    32     9    10    1
    33    21    22    1
@<TRIPOS>MOLECULE
*****
 30 33 0 0 0
SMALL
GASTEIGER

@<TRIPOS>ATOM
      1 C         143.2541  141.0338  163.5854 C.ar    1  UNL1        0.0686
      2 C         143.4194  139.6026  164.0031 C.ar    1  UNL1        0.1045
      3 N         143.3470  139.2318  165.4546 N.ar    1  UNL1       -0.2290
      4 C         143.1091  140.2921  166.4887 C.ar    1  UNL1        0.1319
      5 C         142.9438  141.7233  166.0710 C.ar    1  UNL1        0.0303
      6 C         143.0162  142.0941  164.6193 C.ar    1  UNL1       -0.0138
      7 O         144.5728  142.0297  161.5807 O.2     1  UNL1       -0.2701
      8 C         143.3265  141.4046  162.1338 C.2     1  UNL1        0.2471
      9 N         142.1526  141.1503  161.2352 N.am    1  UNL1       -0.3008
     10 H         141.3346  140.7400  161.5982 H       1  UNL1        0.1497
     11 C         142.2251  141.5211  159.7836 C.3     1  UNL1        0.0898
     12 C         142.0561  142.9518  159.3657 C.3     1  UNL1        0.0246
     13 C         142.6499  143.4310  158.0743 C.3     1  UNL1        0.0338
     14 C         142.4810  144.8617  157.6564 C.3     1  UNL1        0.1422
     15 O         141.7181  145.8131  158.5299 O.3     1  UNL1       -0.3538
     16 C         141.1243  145.3339  159.8212 C.3     1  UNL1        0.1422
     17 C         141.2933  143.9032  160.2391 C.3     1  UNL1        0.0338
     18 C         142.8508  143.5252  164.2017 C.3     1  UNL1        0.0226
     19 C         141.9629  144.6761  163.8314 C.3     1  UNL1        0.0047
     20 C         143.4523  144.8532  163.8486 C.3     1  UNL1        0.0047
     21 N         143.0367  139.9213  167.9403 N.pl3   1  UNL1       -0.2973
     22 H         143.6395  139.2326  168.3031 H       1  UNL1        0.1536
     23 C         142.0458  140.5996  168.8391 C.ar    1  UNL1        0.0609
     24 C         140.6532  140.0568  168.9652 C.ar    1  UNL1        0.0269
     25 C         139.6623  140.7351  169.8640 C.ar    1  UNL1        0.0590
     26 CL        138.2696  140.1922  169.9900 Cl      1  UNL1       -0.0822
     27 C         140.0640  141.9563  170.6368 C.ar    1  UNL1        0.0123
     28 C         141.4566  142.4992  170.5108 C.ar    1  UNL1        0.0135
     29 C         142.4475  141.8208  169.6119 C.ar    1  UNL1        0.0711
     30 CL        143.8401  142.3637  169.4859 Cl      1  UNL1       -0.0810
@<TRIPOS>BOND
     1     7     8    2
     2     8     9   am
     3     9    11    1
     4    11    12    1
     5    12    13    1
     6    13    14    1
     7    14    15    1
     8    15    16    1
     9    16    17    1
    10     8     1    1
    11     1     2   ar
    12     2     3   ar
    13     3     4   ar
    14     4    21    1
    15    21    23    1
    16    23    24   ar
    17    24    25   ar
    18    25    26    1
    19    25    27   ar
    20    27    28   ar
    21    28    29   ar
    22    29    30    1
    23     4     5   ar
    24     5     6   ar
    25     6    18    1
    26    18    19    1
    27    19    20    1
    28    17    12    1
    29     6     1   ar
    30    20    18    1
    31    29    23   ar
    32     9    10    1
    33    21    22    1
@<TRIPOS>MOLECULE
*****
 30 33 0 0 0
SMALL
GASTEIGER

@<TRIPOS>ATOM
      1 C         139.9237  138.6866  164.2563 C.ar    1  UNL1        0.0686
      2 C         138.6813  138.3046  165.0051 C.ar    1  UNL1        0.1045
      3 N         138.5297  138.6825  166.4487 N.ar    1  UNL1       -0.2290
      4 C         139.6204  139.4424  167.1437 C.ar    1  UNL1        0.1319
      5 C         140.8627  139.8244  166.3950 C.ar    1  UNL1        0.0303
      6 C         141.0144  139.4465  164.9513 C.ar    1  UNL1       -0.0138
      7 O         140.8231  137.0636  162.4379 O.2     1  UNL1       -0.2701
      8 C         140.0754  138.3088  162.8127 C.2     1  UNL1        0.2471
      9 N         139.4794  139.1762  161.7438 N.am    1  UNL1       -0.3008
     10 H         138.9887  139.9934  161.9897 H       1  UNL1        0.1497
     11 C         139.6311  138.7983  160.3001 C.3     1  UNL1        0.0898
     12 C         140.9017  139.1193  159.5703 C.3     1  UNL1        0.0246
     13 C         141.1970  138.4631  158.2542 C.3     1  UNL1        0.0338
     14 C         142.4676  138.7841  157.5245 C.3     1  UNL1        0.1422
     15 O         143.4429  139.7612  158.1109 O.3     1  UNL1       -0.3538
     16 C         143.1477  140.4174  159.4270 C.3     1  UNL1        0.1422
     17 C         141.8771  140.0964  160.1567 C.3     1  UNL1        0.0338
     18 C         142.2568  139.8285  164.2025 C.3     1  UNL1        0.0226
     19 C         143.5037  139.4342  163.4681 C.3     1  UNL1        0.0047
     20 C         143.1616  140.8845  163.6403 C.3     1  UNL1        0.0047
     21 N         139.4687  139.8202  168.5874 N.pl3   1  UNL1       -0.2973
     22 H         138.7719  139.3942  169.1371 H       1  UNL1        0.1536
     23 C         140.3787  140.8471  169.1935 C.ar    1  UNL1        0.0609
     24 C         139.9210  142.2693  169.3273 C.ar    1  UNL1        0.0269
     25 C         140.8310  143.2962  169.9335 C.ar    1  UNL1        0.0590
     26 CL        140.3732  144.7184  170.0673 Cl      1  UNL1       -0.0822
     27 C         142.1987  142.9009  170.4057 C.ar    1  UNL1        0.0123
     28 C         142.6564  141.4788  170.2719 C.ar    1  UNL1        0.0135
     29 C         141.7464  140.4519  169.6658 C.ar    1  UNL1        0.0711
     30 CL        142.2042  139.0297  169.5319 Cl      1  UNL1       -0.0810
@<TRIPOS>BOND
     1     7     8    2
     2     8     9   am
     3     9    11    1
     4    11    12    1
     5    12    13    1
     6    13    14    1
     7    14    15    1
     8    15    16    1
     9    16    17    1
    10     8     1    1
    11     1     2   ar
    12     2     3   ar
    13     3     4   ar
    14     4    21    1
    15    21    23    1
    16    23    24   ar
    17    24    25   ar
    18    25    26    1
    19    25    27   ar
    20    27    28   ar
    21    28    29   ar
    22    29    30    1
    23     4     5   ar
    24     5     6   ar
    25     6    18    1
    26    18    19    1
    27    19    20    1
    28    17    12    1
    29     6     1   ar
    30    20    18    1
    31    29    23   ar
    32     9    10    1
    33    21    22    1
