@<TRIPOS>MOLECULE
*****
 26 29 0 0 0
SMALL
GASTEIGER

@<TRIPOS>ATOM
      1 C         141.0648  137.1710  164.1829 C.3     1  UNL1        0.1063
      2 C         141.6339  138.5587  164.1621 C.3     1  UNL1        0.3270
      3 N         142.5206  137.8982  163.1485 N.2     1  UNL1       -0.0293
      4 C         143.5999  138.6875  162.4685 C.2     1  UNL1        0.3199
      5 N         144.4866  138.0270  161.4549 N.pl3   1  UNL1       -0.2463
      6 C         143.7924  140.1372  162.8022 C.ar    1  UNL1        0.1156
      7 C         144.8716  140.9264  162.1223 C.ar    1  UNL1        0.0104
      8 C         145.0640  142.3761  162.4560 C.ar    1  UNL1        0.0004
      9 C         144.1773  143.0365  163.4696 C.ar    1  UNL1        0.0031
     10 C         143.0980  142.2473  164.1496 C.ar    1  UNL1        0.0373
     11 C         142.9056  140.7976  163.8159 C.ar    1  UNL1        0.1501
     12 O         141.8263  140.0083  164.4958 O.3     1  UNL1       -0.4394
     13 H         144.3603  137.0755  161.2359 H       1  UNL1        0.2884
     14 H         145.1950  138.5450  161.0086 H       1  UNL1        0.2884
     15 C         140.5495  138.7372  165.1830 C.ar    1  UNL1        0.0612
     16 C         139.2921  137.9244  165.0915 C.ar    1  UNL1        0.0034
     17 C         138.2077  138.1029  166.1124 C.ar    1  UNL1       -0.0001
     18 C         138.3807  139.0942  167.2248 C.ar    1  UNL1        0.0000
     19 C         139.6380  139.9070  167.3163 C.ar    1  UNL1        0.0014
     20 C         140.7225  139.7285  166.2954 C.ar    1  UNL1        0.0035
     21 C         139.8111  140.8983  168.4287 C.ar    1  UNL1        0.0192
     22 C         140.2788  142.2911  168.1260 C.ar    1  UNL1        0.0031
     23 C         140.4518  143.2824  169.2383 C.ar    1  UNL1        0.0207
     24 C         140.1572  142.8811  170.6532 C.ar    1  UNL1        0.0989
     25 N         139.6895  141.4883  170.9559 N.ar    1  UNL1       -0.2423
     26 C         139.5164  140.4970  169.8436 C.ar    1  UNL1        0.0988
@<TRIPOS>BOND
     1     1     2    1
     2     2    15    1
     3    15    16   ar
     4    16    17   ar
     5    17    18   ar
     6    18    19   ar
     7    19    21    1
     8    21    22   ar
     9    22    23   ar
    10    23    24   ar
    11    24    25   ar
    12    25    26   ar
    13    19    20   ar
    14     2     3    1
    15     3     4    2
    16     4     5    1
    17     4     6    1
    18     6     7   ar
    19     7     8   ar
    20     8     9   ar
    21     9    10   ar
    22    10    11   ar
    23    11    12    1
    24    12     2    1
    25    20    15   ar
    26    11     6   ar
    27    26    21   ar
    28     5    13    1
    29     5    14    1
@<TRIPOS>MOLECULE
*****
 26 29 0 0 0
SMALL
GASTEIGER

@<TRIPOS>ATOM
      1 C         142.4732  138.4322  165.2733 C.3     1  UNL1        0.1063
      2 C         141.6675  138.4893  164.0094 C.3     1  UNL1        0.3270
      3 N         143.0410  138.3071  163.4347 N.2     1  UNL1       -0.0293
      4 C         143.2289  138.2384  161.9481 C.2     1  UNL1        0.3199
      5 N         144.6024  138.0562  161.3734 N.pl3   1  UNL1       -0.2463
      6 C         142.0433  138.3519  161.0362 C.ar    1  UNL1        0.1156
      7 C         142.2312  138.2832  159.5496 C.ar    1  UNL1        0.0104
      8 C         141.0457  138.3967  158.6378 C.ar    1  UNL1        0.0004
      9 C         139.6722  138.5789  159.2125 C.ar    1  UNL1        0.0031
     10 C         139.4842  138.6476  160.6991 C.ar    1  UNL1        0.0373
     11 C         140.6698  138.5341  161.6109 C.ar    1  UNL1        0.1501
     12 O         140.4819  138.6028  163.0976 O.3     1  UNL1       -0.4394
     13 H         145.3805  137.9817  161.9719 H       1  UNL1        0.2884
     14 H         144.7257  138.0111  160.3977 H       1  UNL1        0.2884
     15 C         140.5738  138.6516  165.0230 C.ar    1  UNL1        0.0612
     16 C         139.3374  137.8070  164.9343 C.ar    1  UNL1        0.0034
     17 C         138.2438  137.9694  165.9479 C.ar    1  UNL1       -0.0001
     18 C         138.3865  138.9764  167.0504 C.ar    1  UNL1        0.0000
     19 C         139.6228  139.8211  167.1393 C.ar    1  UNL1        0.0014
     20 C         140.7165  139.6587  166.1256 C.ar    1  UNL1        0.0035
     21 C         139.7656  140.8281  168.2418 C.ar    1  UNL1        0.0192
     22 C         140.4458  142.1386  167.9770 C.ar    1  UNL1        0.0031
     23 C         140.5886  143.1456  169.0794 C.ar    1  UNL1        0.0207
     24 C         140.0513  142.8423  170.4466 C.ar    1  UNL1        0.0989
     25 N         139.3710  141.5319  170.7114 N.ar    1  UNL1       -0.2423
     26 C         139.2282  140.5248  169.6089 C.ar    1  UNL1        0.0988
@<TRIPOS>BOND
     1     1     2    1
     2     2    15    1
     3    15    16   ar
     4    16    17   ar
     5    17    18   ar
     6    18    19   ar
     7    19    21    1
     8    21    22   ar
     9    22    23   ar
    10    23    24   ar
    11    24    25   ar
    12    25    26   ar
    13    19    20   ar
    14     2     3    1
    15     3     4    2
    16     4     5    1
    17     4     6    1
    18     6     7   ar
    19     7     8   ar
    20     8     9   ar
    21     9    10   ar
    22    10    11   ar
    23    11    12    1
    24    12     2    1
    25    20    15   ar
    26    11     6   ar
    27    26    21   ar
    28     5    13    1
    29     5    14    1
@<TRIPOS>MOLECULE
*****
 26 29 0 0 0
SMALL
GASTEIGER

@<TRIPOS>ATOM
      1 C         138.0960  139.1709  167.2188 C.3     1  UNL1        0.1063
      2 C         139.3517  139.9729  167.3923 C.3     1  UNL1        0.3270
      3 N         139.1358  139.5179  168.8053 N.2     1  UNL1       -0.0293
      4 C         140.0991  139.9262  169.8801 C.2     1  UNL1        0.3199
      5 N         139.8833  139.4712  171.2930 N.pl3   1  UNL1       -0.2463
      6 C         141.2784  140.7895  169.5420 C.ar    1  UNL1        0.1156
      7 C         142.2417  141.1977  170.6168 C.ar    1  UNL1        0.0104
      8 C         143.4208  142.0610  170.2787 C.ar    1  UNL1        0.0004
      9 C         143.6367  142.5160  168.8657 C.ar    1  UNL1        0.0031
     10 C         142.6733  142.1077  167.7909 C.ar    1  UNL1        0.0373
     11 C         141.4942  141.2444  168.1290 C.ar    1  UNL1        0.1501
     12 O         140.5308  140.8361  167.0542 O.3     1  UNL1       -0.4394
     13 H         139.1094  138.9046  171.5150 H       1  UNL1        0.2884
     14 H         140.5156  139.7392  171.9985 H       1  UNL1        0.2884
     15 C         139.1314  140.1493  165.9192 C.ar    1  UNL1        0.0612
     16 C         138.6929  138.9848  165.0815 C.ar    1  UNL1        0.0034
     17 C         138.4727  139.1613  163.6084 C.ar    1  UNL1       -0.0001
     18 C         138.6909  140.5023  162.9727 C.ar    1  UNL1        0.0000
     19 C         139.1294  141.6668  163.8102 C.ar    1  UNL1        0.0014
     20 C         139.3497  141.4904  165.2835 C.ar    1  UNL1        0.0035
     21 C         139.3477  143.0078  163.1746 C.ar    1  UNL1        0.0192
     22 C         140.7412  143.4855  162.8912 C.ar    1  UNL1        0.0031
     23 C         140.9595  144.8265  162.2556 C.ar    1  UNL1        0.0207
     24 C         139.7845  145.6899  161.9035 C.ar    1  UNL1        0.0989
     25 N         138.3911  145.2122  162.1869 N.ar    1  UNL1       -0.2423
     26 C         138.1728  143.8712  162.8225 C.ar    1  UNL1        0.0988
@<TRIPOS>BOND
     1     1     2    1
     2     2    15    1
     3    15    16   ar
     4    16    17   ar
     5    17    18   ar
     6    18    19   ar
     7    19    21    1
     8    21    22   ar
     9    22    23   ar
    10    23    24   ar
    11    24    25   ar
    12    25    26   ar
    13    19    20   ar
    14     2     3    1
    15     3     4    2
    16     4     5    1
    17     4     6    1
    18     6     7   ar
    19     7     8   ar
    20     8     9   ar
    21     9    10   ar
    22    10    11   ar
    23    11    12    1
    24    12     2    1
    25    20    15   ar
    26    11     6   ar
    27    26    21   ar
    28     5    13    1
    29     5    14    1
@<TRIPOS>MOLECULE
*****
 26 29 0 0 0
SMALL
GASTEIGER

@<TRIPOS>ATOM
      1 C         137.8457  141.6849  163.8831 C.3     1  UNL1        0.1063
      2 C         139.2538  142.1267  164.1518 C.3     1  UNL1        0.3270
      3 N         138.9464  142.9580  162.9416 N.2     1  UNL1       -0.0293
      4 C         139.9839  143.8891  162.3880 C.2     1  UNL1        0.3199
      5 N         139.6765  144.7204  161.1779 N.pl3   1  UNL1       -0.2463
      6 C         141.3290  143.9888  163.0445 C.ar    1  UNL1        0.1156
      7 C         142.3665  144.9199  162.4909 C.ar    1  UNL1        0.0104
      8 C         143.7115  145.0197  163.1474 C.ar    1  UNL1        0.0004
      9 C         144.0189  144.1883  164.3575 C.ar    1  UNL1        0.0031
     10 C         142.9814  143.2573  164.9111 C.ar    1  UNL1        0.0373
     11 C         141.6364  143.1575  164.2546 C.ar    1  UNL1        0.1501
     12 O         140.5988  142.2264  164.8083 O.3     1  UNL1       -0.4394
     13 H         138.7937  144.6549  160.7470 H       1  UNL1        0.2884
     14 H         140.3575  145.3315  160.8145 H       1  UNL1        0.2884
     15 C         139.0722  141.1420  165.2686 C.ar    1  UNL1        0.0612
     16 C         138.1141  139.9986  165.1120 C.ar    1  UNL1        0.0034
     17 C         137.9325  139.0139  166.2288 C.ar    1  UNL1       -0.0001
     18 C         138.7091  139.1725  167.5023 C.ar    1  UNL1        0.0000
     19 C         139.6672  140.3159  167.6590 C.ar    1  UNL1        0.0014
     20 C         139.8488  141.3007  166.5421 C.ar    1  UNL1        0.0035
     21 C         140.4438  140.4746  168.9324 C.ar    1  UNL1        0.0192
     22 C         141.8909  140.0826  168.9821 C.ar    1  UNL1        0.0031
     23 C         142.6675  140.2414  170.2555 C.ar    1  UNL1        0.0207
     24 C         141.9973  140.7920  171.4792 C.ar    1  UNL1        0.0989
     25 N         140.5502  141.1840  171.4295 N.ar    1  UNL1       -0.2423
     26 C         139.7736  141.0253  170.1561 C.ar    1  UNL1        0.0988
@<TRIPOS>BOND
     1     1     2    1
     2     2    15    1
     3    15    16   ar
     4    16    17   ar
     5    17    18   ar
     6    18    19   ar
     7    19    21    1
     8    21    22   ar
     9    22    23   ar
    10    23    24   ar
    11    24    25   ar
    12    25    26   ar
    13    19    20   ar
    14     2     3    1
    15     3     4    2
    16     4     5    1
    17     4     6    1
    18     6     7   ar
    19     7     8   ar
    20     8     9   ar
    21     9    10   ar
    22    10    11   ar
    23    11    12    1
    24    12     2    1
    25    20    15   ar
    26    11     6   ar
    27    26    21   ar
    28     5    13    1
    29     5    14    1
@<TRIPOS>MOLECULE
*****
 26 29 0 0 0
SMALL
GASTEIGER

@<TRIPOS>ATOM
      1 C         140.2763  138.0811  164.0764 C.3     1  UNL1        0.1063
      2 C         140.0726  139.5554  164.2630 C.3     1  UNL1        0.3270
      3 N         139.0778  139.2911  163.1719 N.2     1  UNL1       -0.0293
      4 C         138.2493  140.4150  162.6239 C.2     1  UNL1        0.3199
      5 N         137.2545  140.1507  161.5329 N.pl3   1  UNL1       -0.2463
      6 C         138.4158  141.8034  163.1669 C.ar    1  UNL1        0.1156
      7 C         137.5873  142.9273  162.6189 C.ar    1  UNL1        0.0104
      8 C         137.7538  144.3156  163.1619 C.ar    1  UNL1        0.0004
      9 C         138.7486  144.5800  164.2529 C.ar    1  UNL1        0.0031
     10 C         139.5771  143.4560  164.8009 C.ar    1  UNL1        0.0373
     11 C         139.4106  142.0677  164.2579 C.ar    1  UNL1        0.1501
     12 O         140.2391  140.9437  164.8060 O.3     1  UNL1       -0.4394
     13 H         137.1452  139.2395  161.1765 H       1  UNL1        0.2884
     14 H         136.7107  140.8884  161.1732 H       1  UNL1        0.2884
     15 C         141.1382  139.3077  165.2892 C.ar    1  UNL1        0.0612
     16 C         142.1869  138.2635  165.0446 C.ar    1  UNL1        0.0034
     17 C         143.2525  138.0159  166.0708 C.ar    1  UNL1       -0.0001
     18 C         143.2694  138.8124  167.3417 C.ar    1  UNL1        0.0000
     19 C         142.2208  139.8566  167.5864 C.ar    1  UNL1        0.0014
     20 C         141.1551  140.1043  166.5602 C.ar    1  UNL1        0.0035
     21 C         142.2376  140.6532  168.8573 C.ar    1  UNL1        0.0192
     22 C         142.9345  141.9809  168.9010 C.ar    1  UNL1        0.0031
     23 C         142.9514  142.7774  170.1718 C.ar    1  UNL1        0.0207
     24 C         142.2715  142.2466  171.3989 C.ar    1  UNL1        0.0989
     25 N         141.5746  140.9189  171.3552 N.ar    1  UNL1       -0.2423
     26 C         141.5577  140.1223  170.0844 C.ar    1  UNL1        0.0988
@<TRIPOS>BOND
     1     1     2    1
     2     2    15    1
     3    15    16   ar
     4    16    17   ar
     5    17    18   ar
     6    18    19   ar
     7    19    21    1
     8    21    22   ar
     9    22    23   ar
    10    23    24   ar
    11    24    25   ar
    12    25    26   ar
    13    19    20   ar
    14     2     3    1
    15     3     4    2
    16     4     5    1
    17     4     6    1
    18     6     7   ar
    19     7     8   ar
    20     8     9   ar
    21     9    10   ar
    22    10    11   ar
    23    11    12    1
    24    12     2    1
    25    20    15   ar
    26    11     6   ar
    27    26    21   ar
    28     5    13    1
    29     5    14    1
@<TRIPOS>MOLECULE
*****
 26 29 0 0 0
SMALL
GASTEIGER

@<TRIPOS>ATOM
      1 C         143.6843  138.0470  166.5219 C.3     1  UNL1        0.1063
      2 C         142.8895  139.2798  166.8361 C.3     1  UNL1        0.3270
      3 N         143.2031  138.8108  168.2259 N.2     1  UNL1       -0.0293
      4 C         142.7090  139.5887  169.4094 C.2     1  UNL1        0.3199
      5 N         143.0226  139.1197  170.7992 N.pl3   1  UNL1       -0.2463
      6 C         141.9011  140.8357  169.2030 C.ar    1  UNL1        0.1156
      7 C         141.4070  141.6136  170.3864 C.ar    1  UNL1        0.0104
      8 C         140.5992  142.8605  170.1800 C.ar    1  UNL1        0.0004
      9 C         140.2856  143.3295  168.7902 C.ar    1  UNL1        0.0031
     10 C         140.7798  142.5516  167.6067 C.ar    1  UNL1        0.0373
     11 C         141.5875  141.3047  167.8131 C.ar    1  UNL1        0.1501
     12 O         142.0818  140.5267  166.6297 O.3     1  UNL1       -0.4394
     13 H         143.5527  138.3013  170.9347 H       1  UNL1        0.2884
     14 H         142.6982  139.6303  171.5760 H       1  UNL1        0.2884
     15 C         142.8519  139.3207  165.3371 C.ar    1  UNL1        0.0612
     16 C         144.1317  139.3389  164.5550 C.ar    1  UNL1        0.0034
     17 C         144.0941  139.3798  163.0560 C.ar    1  UNL1       -0.0001
     18 C         142.7767  139.4025  162.3392 C.ar    1  UNL1        0.0000
     19 C         141.4969  139.3842  163.1212 C.ar    1  UNL1        0.0014
     20 C         141.5344  139.3433  164.6203 C.ar    1  UNL1        0.0035
     21 C         140.1794  139.4069  162.4045 C.ar    1  UNL1        0.0192
     22 C         139.2470  138.2368  162.5119 C.ar    1  UNL1        0.0031
     23 C         137.9296  138.2594  161.7952 C.ar    1  UNL1        0.0207
     24 C         137.5444  139.4520  160.9710 C.ar    1  UNL1        0.0989
     25 N         138.4768  140.6222  160.8635 N.ar    1  UNL1       -0.2423
     26 C         139.7943  140.5995  161.5803 C.ar    1  UNL1        0.0988
@<TRIPOS>BOND
     1     1     2    1
     2     2    15    1
     3    15    16   ar
     4    16    17   ar
     5    17    18   ar
     6    18    19   ar
     7    19    21    1
     8    21    22   ar
     9    22    23   ar
    10    23    24   ar
    11    24    25   ar
    12    25    26   ar
    13    19    20   ar
    14     2     3    1
    15     3     4    2
    16     4     5    1
    17     4     6    1
    18     6     7   ar
    19     7     8   ar
    20     8     9   ar
    21     9    10   ar
    22    10    11   ar
    23    11    12    1
    24    12     2    1
    25    20    15   ar
    26    11     6   ar
    27    26    21   ar
    28     5    13    1
    29     5    14    1
@<TRIPOS>MOLECULE
*****
 26 29 0 0 0
SMALL
GASTEIGER

@<TRIPOS>ATOM
      1 C         138.1424  138.4698  166.2704 C.3     1  UNL1        0.1063
      2 C         139.3461  139.3169  166.5598 C.3     1  UNL1        0.3270
      3 N         138.6638  139.3690  167.8946 N.2     1  UNL1       -0.0293
      4 C         139.2769  140.1479  169.0204 C.2     1  UNL1        0.3199
      5 N         138.5946  140.2001  170.3552 N.pl3   1  UNL1       -0.2463
      6 C         140.5723  140.8747  168.8113 C.ar    1  UNL1        0.1156
      7 C         141.1854  141.6536  169.9371 C.ar    1  UNL1        0.0104
      8 C         142.4808  142.3804  169.7280 C.ar    1  UNL1        0.0004
      9 C         143.1631  142.3283  168.3932 C.ar    1  UNL1        0.0031
     10 C         142.5500  141.5494  167.2674 C.ar    1  UNL1        0.0373
     11 C         141.2546  140.8226  167.4765 C.ar    1  UNL1        0.1501
     12 O         140.6414  140.0437  166.3507 O.3     1  UNL1       -0.4394
     13 H         137.7444  139.7230  170.4924 H       1  UNL1        0.2884
     14 H         138.9970  140.7113  171.0941 H       1  UNL1        0.2884
     15 C         139.6103  138.9706  165.1245 C.ar    1  UNL1        0.0612
     16 C         140.2404  137.6553  164.7740 C.ar    1  UNL1        0.0034
     17 C         140.5047  137.3090  163.3387 C.ar    1  UNL1       -0.0001
     18 C         140.1389  138.2780  162.2537 C.ar    1  UNL1        0.0000
     19 C         139.5088  139.5934  162.6041 C.ar    1  UNL1        0.0014
     20 C         139.2445  139.9397  164.0395 C.ar    1  UNL1        0.0035
     21 C         139.1430  140.5625  161.5192 C.ar    1  UNL1        0.0192
     22 C         139.2572  140.1552  160.0800 C.ar    1  UNL1        0.0031
     23 C         138.8913  141.1243  158.9952 C.ar    1  UNL1        0.0207
     24 C         138.4113  142.5006  159.3493 C.ar    1  UNL1        0.0989
     25 N         138.2972  142.9078  160.7885 N.ar    1  UNL1       -0.2423
     26 C         138.6630  141.9387  161.8734 C.ar    1  UNL1        0.0988
@<TRIPOS>BOND
     1     1     2    1
     2     2    15    1
     3    15    16   ar
     4    16    17   ar
     5    17    18   ar
     6    18    19   ar
     7    19    21    1
     8    21    22   ar
     9    22    23   ar
    10    23    24   ar
    11    24    25   ar
    12    25    26   ar
    13    19    20   ar
    14     2     3    1
    15     3     4    2
    16     4     5    1
    17     4     6    1
    18     6     7   ar
    19     7     8   ar
    20     8     9   ar
    21     9    10   ar
    22    10    11   ar
    23    11    12    1
    24    12     2    1
    25    20    15   ar
    26    11     6   ar
    27    26    21   ar
    28     5    13    1
    29     5    14    1
@<TRIPOS>MOLECULE
*****
 26 29 0 0 0
SMALL
GASTEIGER

@<TRIPOS>ATOM
      1 C         144.2043  141.6704  163.6106 C.3     1  UNL1        0.1063
      2 C         142.7592  142.0155  163.8172 C.3     1  UNL1        0.3270
      3 N         143.0982  142.9666  162.7079 N.2     1  UNL1       -0.0293
      4 C         142.0487  143.8909  162.1655 C.2     1  UNL1        0.3199
      5 N         142.3877  144.8420  161.0563 N.pl3   1  UNL1       -0.2463
      6 C         140.6602  143.8642  162.7324 C.ar    1  UNL1        0.1156
      7 C         139.6107  144.7885  162.1901 C.ar    1  UNL1        0.0104
      8 C         138.2222  144.7617  162.7570 C.ar    1  UNL1        0.0004
      9 C         137.8833  143.8106  163.8662 C.ar    1  UNL1        0.0031
     10 C         138.9327  142.8863  164.4086 C.ar    1  UNL1        0.0373
     11 C         140.3212  142.9131  163.8417 C.ar    1  UNL1        0.1501
     12 O         141.3708  141.9887  164.3841 O.3     1  UNL1       -0.4394
     13 H         143.2990  144.8596  160.6842 H       1  UNL1        0.2884
     14 H         141.6989  145.4487  160.7003 H       1  UNL1        0.2884
     15 C         142.9221  140.9446  164.8547 C.ar    1  UNL1        0.0612
     16 C         143.6826  139.6936  164.5284 C.ar    1  UNL1        0.0034
     17 C         143.8454  138.6226  165.5659 C.ar    1  UNL1       -0.0001
     18 C         143.2478  138.8027  166.9299 C.ar    1  UNL1        0.0000
     19 C         142.4873  140.0537  167.2563 C.ar    1  UNL1        0.0014
     20 C         142.3244  141.1247  166.2188 C.ar    1  UNL1        0.0035
     21 C         141.8896  140.2338  168.6202 C.ar    1  UNL1        0.0192
     22 C         140.4106  140.0796  168.8172 C.ar    1  UNL1        0.0031
     23 C         139.8129  140.2597  170.1811 C.ar    1  UNL1        0.0207
     24 C         140.6941  140.5940  171.3480 C.ar    1  UNL1        0.0989
     25 N         142.1732  140.7482  171.1510 N.ar    1  UNL1       -0.2423
     26 C         142.7708  140.5681  169.7871 C.ar    1  UNL1        0.0988
@<TRIPOS>BOND
     1     1     2    1
     2     2    15    1
     3    15    16   ar
     4    16    17   ar
     5    17    18   ar
     6    18    19   ar
     7    19    21    1
     8    21    22   ar
     9    22    23   ar
    10    23    24   ar
    11    24    25   ar
    12    25    26   ar
    13    19    20   ar
    14     2     3    1
    15     3     4    2
    16     4     5    1
    17     4     6    1
    18     6     7   ar
    19     7     8   ar
    20     8     9   ar
    21     9    10   ar
    22    10    11   ar
    23    11    12    1
    24    12     2    1
    25    20    15   ar
    26    11     6   ar
    27    26    21   ar
    28     5    13    1
    29     5    14    1
@<TRIPOS>MOLECULE
*****
 26 29 0 0 0
SMALL
GASTEIGER

@<TRIPOS>ATOM
      1 C         143.3566  138.5789  166.1304 C.3     1  UNL1        0.1063
      2 C         142.6050  139.6407  166.8771 C.3     1  UNL1        0.3270
      3 N         143.0674  138.7929  168.0249 N.2     1  UNL1       -0.0293
      4 C         142.7083  139.1733  169.4307 C.2     1  UNL1        0.3199
      5 N         143.1708  138.3255  170.5785 N.pl3   1  UNL1       -0.2463
      6 C         141.8868  140.4015  169.6888 C.ar    1  UNL1        0.1156
      7 C         141.5277  140.7819  171.0946 C.ar    1  UNL1        0.0104
      8 C         140.7061  142.0101  171.3526 C.ar    1  UNL1        0.0004
      9 C         140.2437  142.8579  170.2048 C.ar    1  UNL1        0.0031
     10 C         140.6028  142.4775  168.7990 C.ar    1  UNL1        0.0373
     11 C         141.4243  141.2493  168.5410 C.ar    1  UNL1        0.1501
     12 O         141.7835  140.8689  167.1351 O.3     1  UNL1       -0.4394
     13 H         143.7100  137.5194  170.4091 H       1  UNL1        0.2884
     14 H         142.9351  138.5752  171.5011 H       1  UNL1        0.2884
     15 C         142.4036  140.1198  165.4700 C.ar    1  UNL1        0.0612
     16 C         143.3186  139.6484  164.3790 C.ar    1  UNL1        0.0034
     17 C         143.1172  140.1274  162.9719 C.ar    1  UNL1       -0.0001
     18 C         142.0007  141.0779  162.6558 C.ar    1  UNL1        0.0000
     19 C         141.0856  141.5493  163.7468 C.ar    1  UNL1        0.0014
     20 C         141.2870  141.0703  165.1539 C.ar    1  UNL1        0.0035
     21 C         139.9690  142.4998  163.4308 C.ar    1  UNL1        0.0192
     22 C         139.3947  143.3678  164.5110 C.ar    1  UNL1        0.0031
     23 C         138.2782  144.3183  164.1950 C.ar    1  UNL1        0.0207
     24 C         137.7359  144.4008  162.7989 C.ar    1  UNL1        0.0989
     25 N         138.3102  143.5328  161.7187 N.ar    1  UNL1       -0.2423
     26 C         139.4267  142.5823  162.0347 C.ar    1  UNL1        0.0988
@<TRIPOS>BOND
     1     1     2    1
     2     2    15    1
     3    15    16   ar
     4    16    17   ar
     5    17    18   ar
     6    18    19   ar
     7    19    21    1
     8    21    22   ar
     9    22    23   ar
    10    23    24   ar
    11    24    25   ar
    12    25    26   ar
    13    19    20   ar
    14     2     3    1
    15     3     4    2
    16     4     5    1
    17     4     6    1
    18     6     7   ar
    19     7     8   ar
    20     8     9   ar
    21     9    10   ar
    22    10    11   ar
    23    11    12    1
    24    12     2    1
    25    20    15   ar
    26    11     6   ar
    27    26    21   ar
    28     5    13    1
    29     5    14    1
