@<TRIPOS>MOLECULE
*****
 26 28 0 0 0
SMALL
GASTEIGER

@<TRIPOS>ATOM
      1 C         140.2850  143.2297  164.1881 C.2     1  UNL1        0.0596
      2 C         140.9951  142.8491  162.9227 C.2     1  UNL1        0.0324
      3 C         140.8136  143.6746  161.6836 C.2     1  UNL1        0.0889
      4 N         141.3793  143.5462  160.3003 N.2     1  UNL1       -0.2236
      5 C         140.8374  144.6729  159.4715 C.2     1  UNL1        0.1859
      6 N         139.9369  145.4977  160.3426 N.2     1  UNL1       -0.2387
      7 C         139.9221  144.8807  161.7097 C.3     1  UNL1        0.1679
      8 C         139.2121  145.2612  162.9750 C.2     1  UNL1        0.0164
      9 C         139.3936  144.4357  164.2142 C.2     1  UNL1        0.0690
     10 CL        138.6835  144.8164  165.4796 Cl      1  UNL1       -0.0812
     11 N         140.8295  140.7532  167.9058 N.3     1  UNL1       -0.2635
     12 C         141.8149  141.8343  167.5738 C.3     1  UNL1        0.0941
     13 C         141.6334  142.6598  166.3346 C.3     1  UNL1        0.1081
     14 N         140.4665  142.4042  165.4274 N.pl3   1  UNL1       -0.3056
     15 C         139.4811  141.3231  165.7593 C.3     1  UNL1        0.0889
     16 C         138.3142  141.0676  164.8521 C.3     1  UNL1        0.0229
     17 C         139.6626  140.4976  166.9985 C.3     1  UNL1        0.0924
     18 C         141.0109  139.9277  169.1449 C.3     1  UNL1        0.1377
     19 C         140.8095  141.6152  171.1102 C.3     1  UNL1        0.0738
     20 C         140.3663  140.3534  170.4308 C.2     1  UNL1        0.1672
     21 O         139.2786  139.5173  171.0372 O.2     1  UNL1       -0.2946
     22 S         141.1426  144.9298  158.0255 S.3     1  UNL1       -0.0777
     23 C         140.0511  144.8376  157.0008 C.3     1  UNL1        0.0461
     24 C         140.0122  146.3342  156.9076 C.3     1  UNL1        0.0113
     25 C         140.0899  143.3410  157.0940 C.3     1  UNL1        0.0113
     26 C         138.9595  144.7455  155.9761 C.3     1  UNL1        0.0113
@<TRIPOS>BOND
     1    19    20    1
     2    20    21    2
     3    20    18    1
     4    18    11    1
     5    11    12    1
     6    12    13    1
     7    13    14    1
     8    14     1    1
     9     1     2    2
    10     2     3    1
    11     3     4    2
    12     4     5    1
    13     5    22    1
    14    22    23    1
    15    23    24    1
    16    23    25    1
    17    23    26    1
    18     5     6    2
    19     6     7    1
    20     7     8    1
    21     8     9    2
    22     9    10    1
    23    14    15    1
    24    15    16    1
    25    15    17    1
    26    17    11    1
    27     9     1    1
    28     7     3    1
@<TRIPOS>MOLECULE
*****
 26 28 0 0 0
SMALL
GASTEIGER

@<TRIPOS>ATOM
      1 C         140.3525  139.1323  164.6456 C.2     1  UNL1        0.0596
      2 C         141.0324  139.8230  163.5007 C.2     1  UNL1        0.0324
      3 C         140.7081  139.4316  162.0895 C.2     1  UNL1        0.0889
      4 N         141.2136  139.9303  160.7682 N.2     1  UNL1       -0.2236
      5 C         140.5218  139.1565  159.6853 C.2     1  UNL1        0.1859
      6 N         139.5887  138.1796  160.3373 N.2     1  UNL1       -0.2387
      7 C         139.7038  138.3496  161.8232 C.3     1  UNL1        0.1679
      8 C         139.0240  137.6591  162.9681 C.2     1  UNL1        0.0164
      9 C         139.3484  138.0504  164.3793 C.2     1  UNL1        0.0690
     10 CL        138.6684  137.3598  165.5243 Cl      1  UNL1       -0.0812
     11 N         141.3256  140.3065  168.8794 N.3     1  UNL1       -0.2635
     12 C         139.9877  140.6498  168.2946 C.3     1  UNL1        0.0941
     13 C         139.6633  140.2585  166.8833 C.3     1  UNL1        0.1081
     14 N         140.6769  139.5237  166.0570 N.pl3   1  UNL1       -0.3056
     15 C         142.0148  139.1804  166.6418 C.3     1  UNL1        0.0889
     16 C         143.0283  138.4457  165.8154 C.3     1  UNL1        0.0229
     17 C         142.3391  139.5718  168.0531 C.3     1  UNL1        0.0924
     18 C         141.6500  140.6978  170.2906 C.3     1  UNL1        0.1377
     19 C         141.6967  143.2808  170.0147 C.3     1  UNL1        0.0738
     20 C         141.2885  142.0646  170.7919 C.2     1  UNL1        0.1672
     21 O         140.5188  142.2151  172.0705 O.2     1  UNL1       -0.2946
     22 S         140.7270  139.3292  158.2095 S.3     1  UNL1       -0.0777
     23 C         141.0251  138.1372  157.3491 C.3     1  UNL1        0.0461
     24 C         142.3854  138.0280  157.9716 C.3     1  UNL1        0.0113
     25 C         139.6648  138.2464  156.7266 C.3     1  UNL1        0.0113
     26 C         141.3231  136.9452  156.4887 C.3     1  UNL1        0.0113
@<TRIPOS>BOND
     1    19    20    1
     2    20    21    2
     3    20    18    1
     4    18    11    1
     5    11    12    1
     6    12    13    1
     7    13    14    1
     8    14     1    1
     9     1     2    2
    10     2     3    1
    11     3     4    2
    12     4     5    1
    13     5    22    1
    14    22    23    1
    15    23    24    1
    16    23    25    1
    17    23    26    1
    18     5     6    2
    19     6     7    1
    20     7     8    1
    21     8     9    2
    22     9    10    1
    23    14    15    1
    24    15    16    1
    25    15    17    1
    26    17    11    1
    27     9     1    1
    28     7     3    1
@<TRIPOS>MOLECULE
*****
 26 28 0 0 0
SMALL
GASTEIGER

@<TRIPOS>ATOM
      1 C         140.2773  139.4840  164.2013 C.2     1  UNL1        0.0596
      2 C         139.7563  140.5255  163.2557 C.2     1  UNL1        0.0324
      3 C         139.5165  140.1787  161.8162 C.2     1  UNL1        0.0889
      4 N         139.0119  140.9890  160.6592 N.2     1  UNL1       -0.2236
      5 C         138.9812  140.1017  159.4502 C.2     1  UNL1        0.1859
      6 N         139.4668  138.7429  159.8600 N.2     1  UNL1       -0.2387
      7 C         139.7977  138.7905  161.3223 C.3     1  UNL1        0.1679
      8 C         140.3186  137.7491  162.2679 C.2     1  UNL1        0.0164
      9 C         140.5584  138.0960  163.7074 C.2     1  UNL1        0.0690
     10 CL        141.0794  137.0545  164.6530 Cl      1  UNL1       -0.0812
     11 N         140.9967  140.5245  168.5199 N.3     1  UNL1       -0.2635
     12 C         142.0875  140.7214  167.5093 C.3     1  UNL1        0.0941
     13 C         141.8477  140.3745  166.0698 C.3     1  UNL1        0.1081
     14 N         140.5171  139.8309  165.6409 N.pl3   1  UNL1       -0.3056
     15 C         139.4263  139.6340  166.6515 C.3     1  UNL1        0.0889
     16 C         138.0957  139.0903  166.2226 C.3     1  UNL1        0.0229
     17 C         139.6661  139.9808  168.0910 C.3     1  UNL1        0.0924
     18 C         141.2364  140.8712  169.9594 C.3     1  UNL1        0.1377
     19 C         140.4468  143.3220  169.6119 C.3     1  UNL1        0.0738
     20 C         140.7028  142.1561  170.5203 C.2     1  UNL1        0.1672
     21 O         140.4253  142.2750  171.9896 O.2     1  UNL1       -0.2946
     22 S         138.5420  140.5027  158.0731 S.3     1  UNL1       -0.0777
     23 C         139.0962  141.7450  157.4411 C.3     1  UNL1        0.0461
     24 C         140.4386  141.0861  157.3233 C.3     1  UNL1        0.0113
     25 C         137.7538  142.4039  157.5590 C.3     1  UNL1        0.0113
     26 C         139.6505  142.9873  156.8091 C.3     1  UNL1        0.0113
@<TRIPOS>BOND
     1    19    20    1
     2    20    21    2
     3    20    18    1
     4    18    11    1
     5    11    12    1
     6    12    13    1
     7    13    14    1
     8    14     1    1
     9     1     2    2
    10     2     3    1
    11     3     4    2
    12     4     5    1
    13     5    22    1
    14    22    23    1
    15    23    24    1
    16    23    25    1
    17    23    26    1
    18     5     6    2
    19     6     7    1
    20     7     8    1
    21     8     9    2
    22     9    10    1
    23    14    15    1
    24    15    16    1
    25    15    17    1
    26    17    11    1
    27     9     1    1
    28     7     3    1
@<TRIPOS>MOLECULE
*****
 26 28 0 0 0
SMALL
GASTEIGER

@<TRIPOS>ATOM
      1 C         140.1292  139.2852  164.6246 C.2     1  UNL1        0.0596
      2 C         140.5906  140.1481  163.4876 C.2     1  UNL1        0.0324
      3 C         140.1757  139.8232  162.0832 C.2     1  UNL1        0.0889
      4 N         140.4720  140.4857  160.7705 N.2     1  UNL1       -0.2236
      5 C         139.7788  139.7074  159.6917 C.2     1  UNL1        0.1859
      6 N         139.0542  138.5639  160.3377 N.2     1  UNL1       -0.2387
      7 C         139.2994  138.6355  161.8158 C.3     1  UNL1        0.1679
      8 C         138.8381  137.7726  162.9527 C.2     1  UNL1        0.0164
      9 C         139.2530  138.0975  164.3571 C.2     1  UNL1        0.0690
     10 CL        138.7917  137.2346  165.4941 Cl      1  UNL1       -0.0812
     11 N         141.3739  140.2598  168.8378 N.3     1  UNL1       -0.2635
     12 C         140.0244  140.6826  168.3376 C.3     1  UNL1        0.0941
     13 C         139.6095  140.3577  166.9332 C.3     1  UNL1        0.1081
     14 N         140.5441  139.6101  166.0290 N.pl3   1  UNL1       -0.3056
     15 C         141.8936  139.1873  166.5292 C.3     1  UNL1        0.0889
     16 C         142.8281  138.4396  165.6249 C.3     1  UNL1        0.0229
     17 C         142.3084  139.5122  167.9336 C.3     1  UNL1        0.0924
     18 C         141.7888  140.5847  170.2421 C.3     1  UNL1        0.1377
     19 C         142.1880  143.1516  170.1976 C.3     1  UNL1        0.0738
     20 C         141.5264  141.9501  170.8049 C.2     1  UNL1        0.1672
     21 O         140.6024  142.1141  171.9751 O.2     1  UNL1       -0.2946
     22 S         139.8056  140.0180  158.2245 S.3     1  UNL1       -0.0777
     23 C         139.4555  141.3947  157.7427 C.3     1  UNL1        0.0461
     24 C         140.8923  141.6349  157.3851 C.3     1  UNL1        0.0113
     25 C         138.0187  141.1544  158.1004 C.3     1  UNL1        0.0113
     26 C         139.1054  142.7714  157.2610 C.3     1  UNL1        0.0113
@<TRIPOS>BOND
     1    19    20    1
     2    20    21    2
     3    20    18    1
     4    18    11    1
     5    11    12    1
     6    12    13    1
     7    13    14    1
     8    14     1    1
     9     1     2    2
    10     2     3    1
    11     3     4    2
    12     4     5    1
    13     5    22    1
    14    22    23    1
    15    23    24    1
    16    23    25    1
    17    23    26    1
    18     5     6    2
    19     6     7    1
    20     7     8    1
    21     8     9    2
    22     9    10    1
    23    14    15    1
    24    15    16    1
    25    15    17    1
    26    17    11    1
    27     9     1    1
    28     7     3    1
@<TRIPOS>MOLECULE
*****
 26 28 0 0 0
SMALL
GASTEIGER

@<TRIPOS>ATOM
      1 C         140.5143  139.1115  163.7374 C.2     1  UNL1        0.0596
      2 C         141.1960  140.0291  164.7086 C.2     1  UNL1        0.0324
      3 C         140.6596  140.1794  166.1013 C.2     1  UNL1        0.0889
      4 N         141.1157  141.0030  167.2691 N.2     1  UNL1       -0.2236
      5 C         140.1796  140.7446  168.4123 C.2     1  UNL1        0.1859
      6 N         139.1449  139.7614  167.9510 N.2     1  UNL1       -0.2387
      7 C         139.4415  139.4121  166.5228 C.3     1  UNL1        0.1679
      8 C         138.7599  138.4945  165.5515 C.2     1  UNL1        0.0164
      9 C         139.2963  138.3442  164.1588 C.2     1  UNL1        0.0690
     10 CL        138.6146  137.4265  163.1875 Cl      1  UNL1       -0.0812
     11 N         142.1236  138.6605  159.5592 N.3     1  UNL1       -0.2635
     12 C         142.6204  137.7647  160.6550 C.3     1  UNL1        0.0941
     13 C         142.0840  137.9150  162.0477 C.3     1  UNL1        0.1081
     14 N         141.0508  138.9611  162.3446 N.pl3   1  UNL1       -0.3056
     15 C         140.5540  139.8569  161.2488 C.3     1  UNL1        0.0889
     16 C         139.5207  140.9030  161.5458 C.3     1  UNL1        0.0229
     17 C         141.0904  139.7066  159.8561 C.3     1  UNL1        0.0924
     18 C         142.6600  138.5102  158.1665 C.3     1  UNL1        0.1377
     19 C         141.0729  137.4139  156.4259 C.3     1  UNL1        0.0738
     20 C         142.2638  137.3271  157.3337 C.2     1  UNL1        0.1672
     21 O         143.0586  136.0572  157.4089 O.2     1  UNL1       -0.2946
     22 S         140.2634  141.3612  169.7771 S.3     1  UNL1       -0.0777
     23 C         141.4257  142.2401  170.1330 C.3     1  UNL1        0.0461
     24 C         142.2098  141.0326  170.5540 C.3     1  UNL1        0.0113
     25 C         140.6416  143.4475  169.7120 C.3     1  UNL1        0.0113
     26 C         142.5880  143.1189  170.4889 C.3     1  UNL1        0.0113
@<TRIPOS>BOND
     1    19    20    1
     2    20    21    2
     3    20    18    1
     4    18    11    1
     5    11    12    1
     6    12    13    1
     7    13    14    1
     8    14     1    1
     9     1     2    2
    10     2     3    1
    11     3     4    2
    12     4     5    1
    13     5    22    1
    14    22    23    1
    15    23    24    1
    16    23    25    1
    17    23    26    1
    18     5     6    2
    19     6     7    1
    20     7     8    1
    21     8     9    2
    22     9    10    1
    23    14    15    1
    24    15    16    1
    25    15    17    1
    26    17    11    1
    27     9     1    1
    28     7     3    1
@<TRIPOS>MOLECULE
*****
 26 28 0 0 0
SMALL
GASTEIGER

@<TRIPOS>ATOM
      1 C         140.0579  143.5923  162.8935 C.2     1  UNL1        0.0596
      2 C         141.3285  143.0744  163.4997 C.2     1  UNL1        0.0324
      3 C         141.4117  142.8375  164.9786 C.2     1  UNL1        0.0889
      4 N         142.5220  142.3362  165.8538 N.2     1  UNL1       -0.2236
      5 C         142.0208  142.3074  167.2673 C.2     1  UNL1        0.1859
      6 N         140.6008  142.7909  167.2657 N.2     1  UNL1       -0.2387
      7 C         140.2244  143.1185  165.8511 C.3     1  UNL1        0.1679
      8 C         138.9539  143.6364  165.2448 C.2     1  UNL1        0.0164
      9 C         138.8707  143.8733  163.7660 C.2     1  UNL1        0.0690
     10 CL        137.6001  144.3912  163.1598 Cl      1  UNL1       -0.0812
     11 N         139.8083  144.3030  158.4569 N.3     1  UNL1       -0.2635
     12 C         140.3783  145.3607  159.3550 C.3     1  UNL1        0.0941
     13 C         140.4615  145.1237  160.8338 C.3     1  UNL1        0.1081
     14 N         139.9747  143.8292  161.4146 N.pl3   1  UNL1       -0.3056
     15 C         139.4048  142.7716  160.5165 C.3     1  UNL1        0.0889
     16 C         138.9180  141.4771  161.0973 C.3     1  UNL1        0.0229
     17 C         139.3216  143.0085  159.0377 C.3     1  UNL1        0.0924
     18 C         139.7251  144.5399  156.9781 C.3     1  UNL1        0.1377
     19 C         139.2810  146.9643  156.1563 C.3     1  UNL1        0.0738
     20 C         140.2292  145.8268  156.3951 C.2     1  UNL1        0.1672
     21 O         141.6815  145.9761  156.0509 O.2     1  UNL1       -0.2946
     22 S         142.8023  141.8716  168.4712 S.3     1  UNL1       -0.0777
     23 C         142.0956  141.5993  169.7659 C.3     1  UNL1        0.0461
     24 C         141.7926  140.2037  169.3069 C.3     1  UNL1        0.0113
     25 C         142.3987  142.9948  170.2249 C.3     1  UNL1        0.0113
     26 C         141.3889  141.3269  171.0606 C.3     1  UNL1        0.0113
@<TRIPOS>BOND
     1    19    20    1
     2    20    21    2
     3    20    18    1
     4    18    11    1
     5    11    12    1
     6    12    13    1
     7    13    14    1
     8    14     1    1
     9     1     2    2
    10     2     3    1
    11     3     4    2
    12     4     5    1
    13     5    22    1
    14    22    23    1
    15    23    24    1
    16    23    25    1
    17    23    26    1
    18     5     6    2
    19     6     7    1
    20     7     8    1
    21     8     9    2
    22     9    10    1
    23    14    15    1
    24    15    16    1
    25    15    17    1
    26    17    11    1
    27     9     1    1
    28     7     3    1
@<TRIPOS>MOLECULE
*****
 26 28 0 0 0
SMALL
GASTEIGER

@<TRIPOS>ATOM
      1 C         142.1149  143.4285  163.3701 C.2     1  UNL1        0.0596
      2 C         141.1834  142.9750  164.4549 C.2     1  UNL1        0.0324
      3 C         141.7119  142.7037  165.8322 C.2     1  UNL1        0.0889
      4 N         141.0395  142.2495  167.0938 N.2     1  UNL1       -0.2236
      5 C         142.0838  142.1509  168.1660 C.2     1  UNL1        0.1859
      6 N         143.4016  142.5442  167.5671 N.2     1  UNL1       -0.2387
      7 C         143.1718  142.8859  166.1248 C.3     1  UNL1        0.1679
      8 C         144.1032  143.3393  165.0399 C.2     1  UNL1        0.0164
      9 C         143.5747  143.6106  163.6626 C.2     1  UNL1        0.0690
     10 CL        144.5062  144.0640  162.5777 Cl      1  UNL1       -0.0812
     11 N         140.5295  144.2424  159.2380 N.3     1  UNL1       -0.2635
     12 C         140.5120  145.3261  160.2749 C.3     1  UNL1        0.0941
     13 C         141.0404  145.0548  161.6522 C.3     1  UNL1        0.1081
     14 N         141.5864  143.6998  161.9926 N.pl3   1  UNL1       -0.3056
     15 C         141.6039  142.6161  160.9557 C.3     1  UNL1        0.0889
     16 C         142.1499  141.2611  161.2962 C.3     1  UNL1        0.0229
     17 C         141.0754  142.8874  159.5784 C.3     1  UNL1        0.0924
     18 C         140.0010  144.5137  157.8606 C.3     1  UNL1        0.1377
     19 C         141.9022  145.7468  156.5898 C.3     1  UNL1        0.0738
     20 C         140.4891  145.7052  157.0912 C.2     1  UNL1        0.1672
     21 O         139.5641  146.8552  156.8232 O.2     1  UNL1       -0.2946
     22 S         141.8512  141.7325  169.5876 S.3     1  UNL1       -0.0777
     23 C         140.5945  141.0022  169.9584 C.3     1  UNL1        0.0461
     24 C         141.2540  139.6973  169.6233 C.3     1  UNL1        0.0113
     25 C         139.9351  142.3072  170.2934 C.3     1  UNL1        0.0113
     26 C         139.3379  140.2720  170.3292 C.3     1  UNL1        0.0113
@<TRIPOS>BOND
     1    19    20    1
     2    20    21    2
     3    20    18    1
     4    18    11    1
     5    11    12    1
     6    12    13    1
     7    13    14    1
     8    14     1    1
     9     1     2    2
    10     2     3    1
    11     3     4    2
    12     4     5    1
    13     5    22    1
    14    22    23    1
    15    23    24    1
    16    23    25    1
    17    23    26    1
    18     5     6    2
    19     6     7    1
    20     7     8    1
    21     8     9    2
    22     9    10    1
    23    14    15    1
    24    15    16    1
    25    15    17    1
    26    17    11    1
    27     9     1    1
    28     7     3    1
@<TRIPOS>MOLECULE
*****
 26 28 0 0 0
SMALL
GASTEIGER

@<TRIPOS>ATOM
      1 C         142.7602  141.3186  164.0063 C.2     1  UNL1        0.0596
      2 C         141.8163  142.0870  163.1294 C.2     1  UNL1        0.0324
      3 C         141.9809  142.0521  161.6389 C.2     1  UNL1        0.0889
      4 N         141.2105  142.7030  160.5286 N.2     1  UNL1       -0.2236
      5 C         141.8427  142.3020  159.2288 C.2     1  UNL1        0.1859
      6 N         143.0038  141.4033  159.5357 N.2     1  UNL1       -0.2387
      7 C         143.0892  141.2488  161.0253 C.3     1  UNL1        0.1679
      8 C         144.0329  140.4805  161.9023 C.2     1  UNL1        0.0164
      9 C         143.8684  140.5154  163.3928 C.2     1  UNL1        0.0690
     10 CL        144.8122  139.7471  164.2697 Cl      1  UNL1       -0.0812
     11 N         142.2665  141.4234  168.4780 N.3     1  UNL1       -0.2635
     12 C         141.4881  140.4356  167.6605 C.3     1  UNL1        0.0941
     13 C         141.6527  140.4007  166.1700 C.3     1  UNL1        0.1081
     14 N         142.5956  141.3536  165.4970 N.pl3   1  UNL1       -0.3056
     15 C         143.3740  142.3414  166.3145 C.3     1  UNL1        0.0889
     16 C         144.3169  143.2943  165.6414 C.3     1  UNL1        0.0229
     17 C         143.2094  142.3763  167.8050 C.3     1  UNL1        0.0924
     18 C         142.1020  141.4584  169.9685 C.3     1  UNL1        0.1377
     19 C         140.4644  143.4684  169.7988 C.3     1  UNL1        0.0738
     20 C         141.0560  142.3377  170.5872 C.2     1  UNL1        0.1672
     21 O         140.6016  142.0863  171.9944 O.2     1  UNL1       -0.2946
     22 S         141.3929  142.7255  157.8619 S.3     1  UNL1       -0.0777
     23 C         141.0184  144.1550  157.6049 C.3     1  UNL1        0.0461
     24 C         139.5792  143.7540  157.4714 C.3     1  UNL1        0.0113
     25 C         142.4576  144.5560  157.7384 C.3     1  UNL1        0.0113
     26 C         140.6439  145.5846  157.3479 C.3     1  UNL1        0.0113
@<TRIPOS>BOND
     1    19    20    1
     2    20    21    2
     3    20    18    1
     4    18    11    1
     5    11    12    1
     6    12    13    1
     7    13    14    1
     8    14     1    1
     9     1     2    2
    10     2     3    1
    11     3     4    2
    12     4     5    1
    13     5    22    1
    14    22    23    1
    15    23    24    1
    16    23    25    1
    17    23    26    1
    18     5     6    2
    19     6     7    1
    20     7     8    1
    21     8     9    2
    22     9    10    1
    23    14    15    1
    24    15    16    1
    25    15    17    1
    26    17    11    1
    27     9     1    1
    28     7     3    1
@<TRIPOS>MOLECULE
*****
 26 28 0 0 0
SMALL
GASTEIGER

@<TRIPOS>ATOM
      1 C         139.4569  142.1357  164.0194 C.2     1  UNL1        0.0596
      2 C         140.0939  141.3965  162.8801 C.2     1  UNL1        0.0324
      3 C         139.6719  141.6845  161.4699 C.2     1  UNL1        0.0889
      4 N         140.1172  141.1194  160.1537 N.2     1  UNL1       -0.2236
      5 C         139.3334  141.7973  159.0692 C.2     1  UNL1        0.1859
      6 N         138.4037  142.7813  159.7151 N.2     1  UNL1       -0.2387
      7 C         138.6129  142.7117  161.1988 C.3     1  UNL1        0.1679
      8 C         137.9759  143.4508  162.3381 C.2     1  UNL1        0.0164
      9 C         138.3979  143.1628  163.7484 C.2     1  UNL1        0.0690
     10 CL        137.7608  143.9020  164.8876 Cl      1  UNL1       -0.0812
     11 N         140.7230  141.2717  168.2504 N.3     1  UNL1       -0.2635
     12 C         141.3336  142.4211  167.5047 C.3     1  UNL1        0.0941
     13 C         140.9115  142.7091  166.0944 C.3     1  UNL1        0.1081
     14 N         139.8789  141.8477  165.4298 N.pl3   1  UNL1       -0.3056
     15 C         139.2683  140.6983  166.1755 C.3     1  UNL1        0.0889
     16 C         138.2357  139.8369  165.5108 C.3     1  UNL1        0.0229
     17 C         139.6904  140.4103  167.5858 C.3     1  UNL1        0.0924
     18 C         141.1450  140.9837  169.6606 C.3     1  UNL1        0.1377
     19 C         139.6612  142.8664  170.6626 C.3     1  UNL1        0.0738
     20 C         140.8712  141.9839  170.7446 C.2     1  UNL1        0.1672
     21 O         141.8077  142.1014  171.9104 O.2     1  UNL1       -0.2946
     22 S         139.4575  141.5368  157.5972 S.3     1  UNL1       -0.0777
     23 C         139.4396  142.6821  156.6288 C.3     1  UNL1        0.0461
     24 C         140.8241  143.0673  157.0586 C.3     1  UNL1        0.0113
     25 C         138.0551  142.2970  156.1989 C.3     1  UNL1        0.0113
     26 C         139.4216  143.8275  155.6604 C.3     1  UNL1        0.0113
@<TRIPOS>BOND
     1    19    20    1
     2    20    21    2
     3    20    18    1
     4    18    11    1
     5    11    12    1
     6    12    13    1
     7    13    14    1
     8    14     1    1
     9     1     2    2
    10     2     3    1
    11     3     4    2
    12     4     5    1
    13     5    22    1
    14    22    23    1
    15    23    24    1
    16    23    25    1
    17    23    26    1
    18     5     6    2
    19     6     7    1
    20     7     8    1
    21     8     9    2
    22     9    10    1
    23    14    15    1
    24    15    16    1
    25    15    17    1
    26    17    11    1
    27     9     1    1
    28     7     3    1
