@<TRIPOS>MOLECULE
*****
 31 34 0 0 0
SMALL
GASTEIGER

@<TRIPOS>ATOM
      1 C         139.2137  137.9036  163.7913 C.3     1  UNL1        0.1063
      2 N         139.3785  138.5594  165.1303 N.3     1  UNL1       -0.2702
      3 C         138.2907  138.4514  166.1573 C.3     1  UNL1        0.0749
      4 C         138.4555  139.1072  167.4963 C.3     1  UNL1        0.0485
      5 C         139.7081  139.8711  167.8081 C.3     1  UNL1        0.1097
      6 O         138.9658  140.0499  169.0993 O.3     1  UNL1       -0.3826
      7 C         140.7961  139.9791  166.7811 C.3     1  UNL1        0.0485
      8 C         140.6313  139.3233  165.4421 C.3     1  UNL1        0.0749
      9 H         138.1100  139.5963  169.0457 H       1  UNL1        0.2107
     10 C         140.7030  140.6971  168.5684 C.ar    1  UNL1        0.0040
     11 C         142.0118  140.0964  168.9880 C.ar    1  UNL1       -0.0019
     12 C         143.0067  140.9224  169.7483 C.ar    1  UNL1        0.0021
     13 C         142.6927  142.3491  170.0890 C.ar    1  UNL1        0.0296
     14 C         141.3839  142.9497  169.6694 C.ar    1  UNL1        0.1399
     15 F         141.0698  144.3764  170.0100 F       1  UNL1       -0.2042
     16 C         140.3890  142.1237  168.9091 C.ar    1  UNL1        0.0276
     17 C         138.4917  138.6203  162.6890 C.3     1  UNL1        0.1486
     18 O         137.7467  137.8383  161.6480 O.3     1  UNL1       -0.3786
     19 H         137.8322  136.8900  161.8333 H       1  UNL1        0.2108
     20 O         139.7465  146.8188  161.7096 O.2     1  UNL1       -0.2748
     21 C         139.7235  145.3202  161.7710 C.2     1  UNL1        0.2264
     22 C         140.8405  144.5274  161.1597 C.3     1  UNL1        0.0901
     23 C         140.8176  143.0288  161.2211 C.3     1  UNL1        0.0372
     24 C         139.6776  142.3231  161.8937 C.ar    1  UNL1       -0.0085
     25 C         139.6546  140.8245  161.9550 C.ar    1  UNL1       -0.0049
     26 C         138.5146  140.1188  162.6276 C.ar    1  UNL1        0.0054
     27 C         137.3976  140.9117  163.2389 C.ar    1  UNL1       -0.0007
     28 C         137.4205  142.4103  163.1775 C.ar    1  UNL1        0.0141
     29 C         138.5606  143.1160  162.5049 C.ar    1  UNL1        0.0462
     30 N         138.5836  144.6145  162.4435 N.am    1  UNL1       -0.2842
     31 H         137.8504  145.1349  162.8447 H       1  UNL1        0.1548
@<TRIPOS>BOND
     1    20    21    2
     2    21    22    1
     3    22    23    1
     4    23    24    1
     5    24    25   ar
     6    25    26   ar
     7    26    17    1
     8    17    18    1
     9    17     1    1
    10     1     2    1
    11     2     3    1
    12     3     4    1
    13     4     5    1
    14     5     6    1
    15     5    10    1
    16    10    11   ar
    17    11    12   ar
    18    12    13   ar
    19    13    14   ar
    20    14    15    1
    21    14    16   ar
    22     5     7    1
    23     7     8    1
    24    26    27   ar
    25    27    28   ar
    26    28    29   ar
    27    29    30    1
    28    30    21   am
    29    29    24   ar
    30     8     2    1
    31    16    10   ar
    32    18    19    1
    33     6     9    1
    34    30    31    1
@<TRIPOS>MOLECULE
*****
 31 34 0 0 0
SMALL
GASTEIGER

@<TRIPOS>ATOM
      1 C         144.7007  140.2878  164.0304 C.3     1  UNL1        0.1063
      2 N         143.4846  140.2618  164.9083 N.3     1  UNL1       -0.2702
      3 C         142.3341  139.3610  164.5694 C.3     1  UNL1        0.0749
      4 C         141.1181  139.3350  165.4473 C.3     1  UNL1        0.0485
      5 C         141.0526  140.2097  166.6640 C.3     1  UNL1        0.1097
      6 O         139.7184  139.5308  166.7592 O.3     1  UNL1       -0.3826
      7 C         142.2032  141.1105  167.0030 C.3     1  UNL1        0.0485
      8 C         143.4192  141.1365  166.1251 C.3     1  UNL1        0.0749
      9 H         139.6148  138.9159  166.0162 H       1  UNL1        0.2107
     10 C         140.5238  140.8487  167.9139 C.ar    1  UNL1        0.0040
     11 C         139.6522  140.0620  168.8474 C.ar    1  UNL1       -0.0019
     12 C         139.1234  140.7010  170.0972 C.ar    1  UNL1        0.0021
     13 C         139.4662  142.1266  170.4135 C.ar    1  UNL1        0.0296
     14 C         140.3378  142.9133  169.4801 C.ar    1  UNL1        0.1399
     15 F         140.6806  144.3389  169.7964 F       1  UNL1       -0.2042
     16 C         140.8666  142.2743  168.2302 C.ar    1  UNL1        0.0276
     17 C         145.1350  141.5722  163.3887 C.3     1  UNL1        0.1486
     18 O         146.5787  141.7872  163.0430 O.3     1  UNL1       -0.3786
     19 H         147.0923  141.0050  163.2985 H       1  UNL1        0.2108
     20 O         139.0688  146.7101  160.8289 O.2     1  UNL1       -0.2748
     21 C         140.0782  145.6407  161.1248 C.2     1  UNL1        0.2264
     22 C         140.0681  144.3622  160.3405 C.3     1  UNL1        0.0901
     23 C         141.0774  143.2928  160.6364 C.3     1  UNL1        0.0372
     24 C         142.0969  143.5019  161.7166 C.ar    1  UNL1       -0.0085
     25 C         143.1062  142.4325  162.0126 C.ar    1  UNL1       -0.0049
     26 C         144.1257  142.6416  163.0928 C.ar    1  UNL1        0.0054
     27 C         144.1358  143.9202  163.8772 C.ar    1  UNL1       -0.0007
     28 C         143.1265  144.9896  163.5812 C.ar    1  UNL1        0.0141
     29 C         142.1070  144.7804  162.5009 C.ar    1  UNL1        0.0462
     30 N         141.0976  145.8498  162.2050 N.am    1  UNL1       -0.2842
     31 H         141.1042  146.6890  162.7198 H       1  UNL1        0.1548
@<TRIPOS>BOND
     1    20    21    2
     2    21    22    1
     3    22    23    1
     4    23    24    1
     5    24    25   ar
     6    25    26   ar
     7    26    17    1
     8    17    18    1
     9    17     1    1
    10     1     2    1
    11     2     3    1
    12     3     4    1
    13     4     5    1
    14     5     6    1
    15     5    10    1
    16    10    11   ar
    17    11    12   ar
    18    12    13   ar
    19    13    14   ar
    20    14    15    1
    21    14    16   ar
    22     5     7    1
    23     7     8    1
    24    26    27   ar
    25    27    28   ar
    26    28    29   ar
    27    29    30    1
    28    30    21   am
    29    29    24   ar
    30     8     2    1
    31    16    10   ar
    32    18    19    1
    33     6     9    1
    34    30    31    1
@<TRIPOS>MOLECULE
*****
 31 34 0 0 0
SMALL
GASTEIGER

@<TRIPOS>ATOM
      1 C         138.9434  137.8516  163.9409 C.3     1  UNL1        0.1063
      2 N         139.7053  138.5542  165.0252 N.3     1  UNL1       -0.2702
      3 C         141.2038  138.6021  164.9789 C.3     1  UNL1        0.0749
      4 C         141.9656  139.3047  166.0633 C.3     1  UNL1        0.0485
      5 C         141.2290  139.9595  167.1940 C.3     1  UNL1        0.1097
      6 O         142.6421  140.2725  167.5878 O.3     1  UNL1       -0.3826
      7 C         139.7304  139.9117  167.2403 C.3     1  UNL1        0.0485
      8 C         138.9686  139.2091  166.1560 C.3     1  UNL1        0.0749
      9 H         143.2509  139.9010  166.9304 H       1  UNL1        0.2107
     10 C         140.9831  140.7231  168.4615 C.ar    1  UNL1        0.0040
     11 C         140.9621  140.0044  169.7779 C.ar    1  UNL1       -0.0019
     12 C         140.7162  140.7680  171.0454 C.ar    1  UNL1        0.0021
     13 C         140.4913  142.2502  170.9965 C.ar    1  UNL1        0.0296
     14 C         140.5124  142.9689  169.6800 C.ar    1  UNL1        0.1399
     15 F         140.2875  144.4511  169.6311 F       1  UNL1       -0.2042
     16 C         140.7583  142.2053  168.4125 C.ar    1  UNL1        0.0276
     17 C         138.6782  138.5475  162.6388 C.3     1  UNL1        0.1486
     18 O         138.4338  137.7447  161.3955 O.3     1  UNL1       -0.3786
     19 H         138.4818  136.7992  161.6065 H       1  UNL1        0.2108
     20 O         139.7417  146.7852  161.7678 O.2     1  UNL1       -0.2748
     21 C         139.7625  145.2865  161.8265 C.2     1  UNL1        0.2264
     22 C         140.9507  144.5320  161.3079 C.3     1  UNL1        0.0901
     23 C         140.9714  143.0333  161.3666 C.3     1  UNL1        0.0372
     24 C         139.8041  142.2891  161.9440 C.ar    1  UNL1       -0.0085
     25 C         139.8248  140.7904  162.0027 C.ar    1  UNL1       -0.0049
     26 C         138.6575  140.0462  162.5800 C.ar    1  UNL1        0.0054
     27 C         137.4692  140.8007  163.0987 C.ar    1  UNL1       -0.0007
     28 C         137.4485  142.2994  163.0399 C.ar    1  UNL1        0.0141
     29 C         138.6159  143.0436  162.4626 C.ar    1  UNL1        0.0462
     30 N         138.5951  144.5423  162.4038 N.am    1  UNL1       -0.2842
     31 H         137.8153  145.0375  162.7442 H       1  UNL1        0.1548
@<TRIPOS>BOND
     1    20    21    2
     2    21    22    1
     3    22    23    1
     4    23    24    1
     5    24    25   ar
     6    25    26   ar
     7    26    17    1
     8    17    18    1
     9    17     1    1
    10     1     2    1
    11     2     3    1
    12     3     4    1
    13     4     5    1
    14     5     6    1
    15     5    10    1
    16    10    11   ar
    17    11    12   ar
    18    12    13   ar
    19    13    14   ar
    20    14    15    1
    21    14    16   ar
    22     5     7    1
    23     7     8    1
    24    26    27   ar
    25    27    28   ar
    26    28    29   ar
    27    29    30    1
    28    30    21   am
    29    29    24   ar
    30     8     2    1
    31    16    10   ar
    32    18    19    1
    33     6     9    1
    34    30    31    1
@<TRIPOS>MOLECULE
*****
 31 34 0 0 0
SMALL
GASTEIGER

@<TRIPOS>ATOM
      1 C         138.6502  139.9772  163.5016 C.3     1  UNL1        0.1063
      2 N         138.9479  140.0240  164.9710 N.3     1  UNL1       -0.2702
      3 C         138.1112  139.2318  165.9313 C.3     1  UNL1        0.0749
      4 C         138.4088  139.2786  167.4008 C.3     1  UNL1        0.0485
      5 C         139.5432  140.1177  167.9099 C.3     1  UNL1        0.1097
      6 O         139.0397  139.5481  169.2030 O.3     1  UNL1       -0.3826
      7 C         140.3800  140.9099  166.9495 C.3     1  UNL1        0.0485
      8 C         140.0823  140.8631  165.4801 C.3     1  UNL1        0.0749
      9 H         138.2830  138.9671  169.0276 H       1  UNL1        0.2107
     10 C         140.5027  140.7589  168.8681 C.ar    1  UNL1        0.0040
     11 C         140.4538  142.2400  169.1000 C.ar    1  UNL1       -0.0019
     12 C         141.4133  142.8813  170.0582 C.ar    1  UNL1        0.0021
     13 C         142.4218  142.0414  170.7845 C.ar    1  UNL1        0.0296
     14 C         142.4708  140.5603  170.5526 C.ar    1  UNL1        0.1399
     15 F         143.4792  139.7203  171.2788 F       1  UNL1       -0.2042
     16 C         141.5112  139.9190  169.5943 C.ar    1  UNL1        0.0276
     17 C         138.0437  141.1684  162.8209 C.3     1  UNL1        0.1486
     18 O         136.5558  141.3581  162.8259 O.3     1  UNL1       -0.3786
     19 H         136.1383  140.6272  163.3079 H       1  UNL1        0.2108
     20 O         142.4425  146.2821  157.8963 O.2     1  UNL1       -0.2748
     21 C         141.5610  145.2806  158.5820 C.2     1  UNL1        0.2264
     22 C         140.6710  144.3857  157.7715 C.3     1  UNL1        0.0901
     23 C         139.7895  143.3843  158.4572 C.3     1  UNL1        0.0372
     24 C         139.7981  143.2778  159.9534 C.ar    1  UNL1       -0.0085
     25 C         138.9166  142.2763  160.6391 C.ar    1  UNL1       -0.0049
     26 C         138.9252  142.1698  162.1352 C.ar    1  UNL1        0.0054
     27 C         139.8152  143.0648  162.9458 C.ar    1  UNL1       -0.0007
     28 C         140.6967  144.0662  162.2601 C.ar    1  UNL1        0.0141
     29 C         140.6881  144.1727  160.7639 C.ar    1  UNL1        0.0462
     30 N         141.5696  145.1741  160.0782 N.am    1  UNL1       -0.2842
     31 H         142.1537  145.7615  160.6101 H       1  UNL1        0.1548
@<TRIPOS>BOND
     1    20    21    2
     2    21    22    1
     3    22    23    1
     4    23    24    1
     5    24    25   ar
     6    25    26   ar
     7    26    17    1
     8    17    18    1
     9    17     1    1
    10     1     2    1
    11     2     3    1
    12     3     4    1
    13     4     5    1
    14     5     6    1
    15     5    10    1
    16    10    11   ar
    17    11    12   ar
    18    12    13   ar
    19    13    14   ar
    20    14    15    1
    21    14    16   ar
    22     5     7    1
    23     7     8    1
    24    26    27   ar
    25    27    28   ar
    26    28    29   ar
    27    29    30    1
    28    30    21   am
    29    29    24   ar
    30     8     2    1
    31    16    10   ar
    32    18    19    1
    33     6     9    1
    34    30    31    1
@<TRIPOS>MOLECULE
*****
 31 34 0 0 0
SMALL
GASTEIGER

@<TRIPOS>ATOM
      1 C         143.1865  138.6827  162.9352 C.3     1  UNL1        0.1063
      2 N         143.0862  140.1525  162.6531 N.3     1  UNL1       -0.2702
      3 C         144.3303  140.9858  162.5646 C.3     1  UNL1        0.0749
      4 C         144.2301  142.4556  162.2824 C.3     1  UNL1        0.0485
      5 C         142.8858  143.0922  162.0889 C.3     1  UNL1        0.1097
      6 O         143.7696  144.2911  161.9117 O.3     1  UNL1       -0.3826
      7 C         141.6416  142.2589  162.1774 C.3     1  UNL1        0.0485
      8 C         141.7418  140.7891  162.4595 C.3     1  UNL1        0.0749
      9 H         144.6974  144.0266  162.0124 H       1  UNL1        0.2107
     10 C         141.8483  144.1451  161.8338 C.ar    1  UNL1        0.0040
     11 C         141.2272  144.8803  162.9842 C.ar    1  UNL1       -0.0019
     12 C         140.1898  145.9333  162.7291 C.ar    1  UNL1        0.0021
     13 C         139.7735  146.2510  161.3235 C.ar    1  UNL1        0.0296
     14 C         140.3946  145.5158  160.1730 C.ar    1  UNL1        0.1399
     15 F         139.9784  145.8336  158.7674 F       1  UNL1       -0.2042
     16 C         141.4321  144.4629  160.4281 C.ar    1  UNL1        0.0276
     17 C         142.2209  138.0331  163.8818 C.3     1  UNL1        0.1486
     18 O         141.3295  136.9265  163.4016 O.3     1  UNL1       -0.3786
     19 H         141.5033  136.7557  162.4627 H       1  UNL1        0.2108
     20 O         140.5818  140.9169  171.5465 O.2     1  UNL1       -0.2748
     21 C         140.6559  140.4597  170.1197 C.2     1  UNL1        0.2264
     22 C         139.4610  140.6006  169.2241 C.3     1  UNL1        0.0901
     23 C         139.5350  140.1435  167.7973 C.3     1  UNL1        0.0372
     24 C         140.8039  139.5455  167.2663 C.ar    1  UNL1       -0.0085
     25 C         140.8780  139.0883  165.8395 C.ar    1  UNL1       -0.0049
     26 C         142.1469  138.4903  165.3085 C.ar    1  UNL1        0.0054
     27 C         143.3419  138.3493  166.2042 C.ar    1  UNL1       -0.0007
     28 C         143.2679  138.8065  167.6309 C.ar    1  UNL1        0.0141
     29 C         141.9988  139.4046  168.1619 C.ar    1  UNL1        0.0462
     30 N         141.9248  139.8617  169.5887 N.am    1  UNL1       -0.2842
     31 H         142.7091  139.7692  170.1765 H       1  UNL1        0.1548
@<TRIPOS>BOND
     1    20    21    2
     2    21    22    1
     3    22    23    1
     4    23    24    1
     5    24    25   ar
     6    25    26   ar
     7    26    17    1
     8    17    18    1
     9    17     1    1
    10     1     2    1
    11     2     3    1
    12     3     4    1
    13     4     5    1
    14     5     6    1
    15     5    10    1
    16    10    11   ar
    17    11    12   ar
    18    12    13   ar
    19    13    14   ar
    20    14    15    1
    21    14    16   ar
    22     5     7    1
    23     7     8    1
    24    26    27   ar
    25    27    28   ar
    26    28    29   ar
    27    29    30    1
    28    30    21   am
    29    29    24   ar
    30     8     2    1
    31    16    10   ar
    32    18    19    1
    33     6     9    1
    34    30    31    1
@<TRIPOS>MOLECULE
*****
 31 34 0 0 0
SMALL
GASTEIGER

@<TRIPOS>ATOM
      1 C         137.7252  143.5421  163.2454 C.3     1  UNL1        0.1063
      2 N         138.7160  143.9090  162.1807 N.3     1  UNL1       -0.2702
      3 C         139.5127  145.1741  162.3015 C.3     1  UNL1        0.0749
      4 C         140.5036  145.5410  161.2368 C.3     1  UNL1        0.0485
      5 C         140.6977  144.6428  160.0513 C.3     1  UNL1        0.1097
      6 O         141.6804  145.7268  159.7205 O.3     1  UNL1       -0.3826
      7 C         139.9009  143.3776  159.9304 C.3     1  UNL1        0.0485
      8 C         138.9101  143.0107  160.9951 C.3     1  UNL1        0.0749
      9 H         141.6664  146.4000  160.4187 H       1  UNL1        0.2107
     10 C         141.2331  144.1210  158.7508 C.ar    1  UNL1        0.0040
     11 C         140.3328  144.0210  157.5552 C.ar    1  UNL1       -0.0019
     12 C         140.8682  143.4993  156.2548 C.ar    1  UNL1        0.0021
     13 C         142.3039  143.0775  156.1500 C.ar    1  UNL1        0.0296
     14 C         143.2041  143.1774  157.3456 C.ar    1  UNL1        0.1399
     15 F         144.6397  142.7557  157.2408 F       1  UNL1       -0.2042
     16 C         142.6687  143.6992  158.6461 C.ar    1  UNL1        0.0276
     17 C         137.5693  142.1099  163.6634 C.3     1  UNL1        0.1486
     18 O         136.5334  141.2457  163.0077 O.3     1  UNL1       -0.3786
     19 H         136.0552  141.7634  162.3412 H       1  UNL1        0.2108
     20 O         143.1349  140.0638  169.5445 O.2     1  UNL1       -0.2748
     21 C         142.2548  140.6317  168.4708 C.2     1  UNL1        0.2264
     22 C         142.5401  141.9930  167.9093 C.3     1  UNL1        0.0901
     23 C         141.6600  142.5609  166.8355 C.3     1  UNL1        0.0372
     24 C         140.4947  141.7675  166.3232 C.ar    1  UNL1       -0.0085
     25 C         139.6146  142.3354  165.2495 C.ar    1  UNL1       -0.0049
     26 C         138.4493  141.5420  164.7372 C.ar    1  UNL1        0.0054
     27 C         138.1640  140.1806  165.2987 C.ar    1  UNL1       -0.0007
     28 C         139.0441  139.6127  166.3725 C.ar    1  UNL1        0.0141
     29 C         140.2094  140.4062  166.8847 C.ar    1  UNL1        0.0462
     30 N         141.0895  139.8383  167.9585 N.am    1  UNL1       -0.2842
     31 H         140.9023  138.9447  168.3270 H       1  UNL1        0.1548
@<TRIPOS>BOND
     1    20    21    2
     2    21    22    1
     3    22    23    1
     4    23    24    1
     5    24    25   ar
     6    25    26   ar
     7    26    17    1
     8    17    18    1
     9    17     1    1
    10     1     2    1
    11     2     3    1
    12     3     4    1
    13     4     5    1
    14     5     6    1
    15     5    10    1
    16    10    11   ar
    17    11    12   ar
    18    12    13   ar
    19    13    14   ar
    20    14    15    1
    21    14    16   ar
    22     5     7    1
    23     7     8    1
    24    26    27   ar
    25    27    28   ar
    26    28    29   ar
    27    29    30    1
    28    30    21   am
    29    29    24   ar
    30     8     2    1
    31    16    10   ar
    32    18    19    1
    33     6     9    1
    34    30    31    1
@<TRIPOS>MOLECULE
*****
 31 34 0 0 0
SMALL
GASTEIGER

@<TRIPOS>ATOM
      1 C         143.5411  143.8518  163.6281 C.3     1  UNL1        0.1063
      2 N         142.5437  144.3142  162.6077 N.3     1  UNL1       -0.2702
      3 C         141.4759  145.2946  162.9932 C.3     1  UNL1        0.0749
      4 C         140.4785  145.7570  161.9727 C.3     1  UNL1        0.0485
      5 C         140.5488  145.2390  160.5668 C.3     1  UNL1        0.1097
      6 O         139.3623  146.1493  160.4499 O.3     1  UNL1       -0.3826
      7 C         141.6166  144.2585  160.1813 C.3     1  UNL1        0.0485
      8 C         142.6140  143.7961  161.2017 C.3     1  UNL1        0.0749
      9 H         139.1906  146.5684  161.3077 H       1  UNL1        0.2107
     10 C         140.2070  145.0370  159.1202 C.ar    1  UNL1        0.0040
     11 C         139.7350  143.6963  158.6412 C.ar    1  UNL1       -0.0019
     12 C         139.3932  143.4944  157.1946 C.ar    1  UNL1        0.0021
     13 C         139.5235  144.6333  156.2272 C.ar    1  UNL1        0.0296
     14 C         139.9956  145.9740  156.7062 C.ar    1  UNL1        0.1399
     15 F         140.1259  147.1129  155.7388 F       1  UNL1       -0.2042
     16 C         140.3374  146.1759  158.1528 C.ar    1  UNL1        0.0276
     17 C         143.3293  142.5538  164.3495 C.3     1  UNL1        0.1486
     18 O         143.8722  141.2791  163.7747 O.3     1  UNL1       -0.3786
     19 H         144.3294  141.4694  162.9406 H       1  UNL1        0.2108
     20 O         140.2884  142.2190  172.1206 O.2     1  UNL1       -0.2748
     21 C         141.0431  142.2423  170.8245 C.2     1  UNL1        0.2264
     22 C         142.5303  142.0471  170.8190 C.3     1  UNL1        0.0901
     23 C         143.2850  142.0704  169.5228 C.3     1  UNL1        0.0372
     24 C         142.5525  142.2888  168.2323 C.ar    1  UNL1       -0.0085
     25 C         143.3072  142.3121  166.9361 C.ar    1  UNL1       -0.0049
     26 C         142.5746  142.5305  165.6456 C.ar    1  UNL1        0.0054
     27 C         141.0873  142.7256  165.6510 C.ar    1  UNL1       -0.0007
     28 C         140.3327  142.7024  166.9472 C.ar    1  UNL1        0.0141
     29 C         141.0653  142.4839  168.2378 C.ar    1  UNL1        0.0462
     30 N         140.3106  142.4607  169.5339 N.am    1  UNL1       -0.2842
     31 H         139.3344  142.5888  169.5375 H       1  UNL1        0.1548
@<TRIPOS>BOND
     1    20    21    2
     2    21    22    1
     3    22    23    1
     4    23    24    1
     5    24    25   ar
     6    25    26   ar
     7    26    17    1
     8    17    18    1
     9    17     1    1
    10     1     2    1
    11     2     3    1
    12     3     4    1
    13     4     5    1
    14     5     6    1
    15     5    10    1
    16    10    11   ar
    17    11    12   ar
    18    12    13   ar
    19    13    14   ar
    20    14    15    1
    21    14    16   ar
    22     5     7    1
    23     7     8    1
    24    26    27   ar
    25    27    28   ar
    26    28    29   ar
    27    29    30    1
    28    30    21   am
    29    29    24   ar
    30     8     2    1
    31    16    10   ar
    32    18    19    1
    33     6     9    1
    34    30    31    1
@<TRIPOS>MOLECULE
*****
 31 34 0 0 0
SMALL
GASTEIGER

@<TRIPOS>ATOM
      1 C         138.4373  138.8185  164.6102 C.3     1  UNL1        0.1063
      2 N         138.3999  140.0272  163.7227 N.3     1  UNL1       -0.2702
      3 C         137.5785  141.2198  164.1139 C.3     1  UNL1        0.0749
      4 C         137.5411  142.4285  163.2264 C.3     1  UNL1        0.0485
      5 C         138.3251  142.4447  161.9477 C.3     1  UNL1        0.1097
      6 O         137.7007  143.8072  161.8876 O.3     1  UNL1       -0.3826
      7 C         139.1466  141.2521  161.5565 C.3     1  UNL1        0.0485
      8 C         139.1840  140.0433  162.4440 C.3     1  UNL1        0.0749
      9 H         137.1478  143.9445  162.6727 H       1  UNL1        0.2107
     10 C         138.8923  142.9340  160.6482 C.ar    1  UNL1        0.0040
     11 C         138.4958  142.2740  159.3609 C.ar    1  UNL1       -0.0019
     12 C         139.0630  142.7634  158.0613 C.ar    1  UNL1        0.0021
     13 C         140.0267  143.9127  158.0491 C.ar    1  UNL1        0.0296
     14 C         140.4232  144.5728  159.3363 C.ar    1  UNL1        0.1399
     15 F         141.3869  145.7221  159.3241 F       1  UNL1       -0.2042
     16 C         139.8560  144.0834  160.6359 C.ar    1  UNL1        0.0276
     17 C         138.4913  138.9834  166.1001 C.3     1  UNL1        0.1486
     18 O         137.3727  138.4634  166.9534 O.3     1  UNL1       -0.3786
     19 H         136.6997  138.0521  166.3887 H       1  UNL1        0.2108
     20 O         144.1405  143.3582  170.4243 O.2     1  UNL1       -0.2748
     21 C         142.9677  142.6732  169.7876 C.2     1  UNL1        0.2264
     22 C         141.5801  142.9381  170.2918 C.3     1  UNL1        0.0901
     23 C         140.4073  142.2531  169.6552 C.3     1  UNL1        0.0372
     24 C         140.6221  141.3032  168.5143 C.ar    1  UNL1       -0.0085
     25 C         139.4493  140.6182  167.8777 C.ar    1  UNL1       -0.0049
     26 C         139.6642  139.6684  166.7368 C.ar    1  UNL1        0.0054
     27 C         141.0518  139.4035  166.2325 C.ar    1  UNL1       -0.0007
     28 C         142.2246  140.0885  166.8692 C.ar    1  UNL1        0.0141
     29 C         142.0098  141.0384  168.0101 C.ar    1  UNL1        0.0462
     30 N         143.1826  141.7234  168.6467 N.am    1  UNL1       -0.2842
     31 H         144.0933  141.5496  168.3158 H       1  UNL1        0.1548
@<TRIPOS>BOND
     1    20    21    2
     2    21    22    1
     3    22    23    1
     4    23    24    1
     5    24    25   ar
     6    25    26   ar
     7    26    17    1
     8    17    18    1
     9    17     1    1
    10     1     2    1
    11     2     3    1
    12     3     4    1
    13     4     5    1
    14     5     6    1
    15     5    10    1
    16    10    11   ar
    17    11    12   ar
    18    12    13   ar
    19    13    14   ar
    20    14    15    1
    21    14    16   ar
    22     5     7    1
    23     7     8    1
    24    26    27   ar
    25    27    28   ar
    26    28    29   ar
    27    29    30    1
    28    30    21   am
    29    29    24   ar
    30     8     2    1
    31    16    10   ar
    32    18    19    1
    33     6     9    1
    34    30    31    1
@<TRIPOS>MOLECULE
*****
 31 34 0 0 0
SMALL
GASTEIGER

@<TRIPOS>ATOM
      1 C         143.7794  138.4189  162.2581 C.3     1  UNL1        0.1063
      2 N         143.1353  138.8222  163.5514 N.3     1  UNL1       -0.2702
      3 C         141.6977  138.4823  163.8112 C.3     1  UNL1        0.0749
      4 C         141.0535  138.8856  165.1044 C.3     1  UNL1        0.0485
      5 C         141.8470  139.6288  166.1378 C.3     1  UNL1        0.1097
      6 O         140.5255  139.5357  166.8414 O.3     1  UNL1       -0.3826
      7 C         143.2847  139.9687  165.8780 C.3     1  UNL1        0.0485
      8 C         143.9289  139.5655  164.5848 C.3     1  UNL1        0.0749
      9 H         139.8914  139.0655  166.2777 H       1  UNL1        0.2107
     10 C         142.1816  140.3397  167.4156 C.ar    1  UNL1        0.0040
     11 C         142.0843  141.8347  167.4898 C.ar    1  UNL1       -0.0019
     12 C         142.4188  142.5456  168.7676 C.ar    1  UNL1        0.0021
     13 C         142.8508  141.7615  169.9711 C.ar    1  UNL1        0.0296
     14 C         142.9481  140.2665  169.8970 C.ar    1  UNL1        0.1399
     15 F         143.3800  139.4824  171.1005 F       1  UNL1       -0.2042
     16 C         142.6135  139.5556  168.6192 C.ar    1  UNL1        0.0276
     17 C         143.6302  139.2863  161.0434 C.3     1  UNL1        0.1486
     18 O         143.9229  138.7277  159.6824 O.3     1  UNL1       -0.3786
     19 H         144.1942  137.8001  159.7652 H       1  UNL1        0.2108
     20 O         139.9578  146.7458  161.8295 O.2     1  UNL1       -0.2748
     21 C         140.3998  145.3199  161.6832 C.2     1  UNL1        0.2264
     22 C         139.3797  144.2241  161.5915 C.3     1  UNL1        0.0901
     23 C         139.8217  142.7982  161.4452 C.3     1  UNL1        0.0372
     24 C         141.2839  142.4681  161.3906 C.ar    1  UNL1       -0.0085
     25 C         141.7259  141.0422  161.2443 C.ar    1  UNL1       -0.0049
     26 C         143.1881  140.7122  161.1897 C.ar    1  UNL1        0.0054
     27 C         144.2083  141.8080  161.2814 C.ar    1  UNL1       -0.0007
     28 C         143.7663  143.2339  161.4277 C.ar    1  UNL1        0.0141
     29 C         142.3040  143.5640  161.4823 C.ar    1  UNL1        0.0462
     30 N         141.8620  144.9899  161.6286 N.am    1  UNL1       -0.2842
     31 H         142.5316  145.7091  161.6888 H       1  UNL1        0.1548
@<TRIPOS>BOND
     1    20    21    2
     2    21    22    1
     3    22    23    1
     4    23    24    1
     5    24    25   ar
     6    25    26   ar
     7    26    17    1
     8    17    18    1
     9    17     1    1
    10     1     2    1
    11     2     3    1
    12     3     4    1
    13     4     5    1
    14     5     6    1
    15     5    10    1
    16    10    11   ar
    17    11    12   ar
    18    12    13   ar
    19    13    14   ar
    20    14    15    1
    21    14    16   ar
    22     5     7    1
    23     7     8    1
    24    26    27   ar
    25    27    28   ar
    26    28    29   ar
    27    29    30    1
    28    30    21   am
    29    29    24   ar
    30     8     2    1
    31    16    10   ar
    32    18    19    1
    33     6     9    1
    34    30    31    1
