@<TRIPOS>MOLECULE
*****
 40 46 0 0 0
SMALL
GASTEIGER

@<TRIPOS>ATOM
      1 C         138.3748  141.8257  164.5055 C.3     1  UNL1        0.0955
      2 C         138.8121  143.0919  165.1806 C.3     1  UNL1        0.0287
      3 C         138.7841  144.3903  164.4299 C.3     1  UNL1        0.0193
      4 C         138.3189  144.4225  163.0043 C.3     1  UNL1        0.0700
      5 C         137.8817  143.1564  162.3292 C.3     1  UNL1        0.0193
      6 C         137.9096  141.8579  163.0798 C.3     1  UNL1        0.0287
      7 C         138.3167  143.6871  163.3747 C.3     1  UNL1        0.1562
      8 O         138.3420  142.5131  164.0535 O.3     1  UNL1       -0.3571
      9 N         138.2910  145.7209  162.2536 N.3     1  UNL1       -0.2926
     10 H         137.9864  146.4362  162.9139 H       1  UNL1        0.1236
     11 C         139.5391  146.2370  161.6013 C.3     1  UNL1        0.1152
     12 C         140.7726  145.3842  161.5621 C.ar    1  UNL1        0.0780
     13 C         141.1082  144.6072  160.3237 C.ar    1  UNL1        0.0544
     14 C         142.3416  143.7544  160.2846 C.ar    1  UNL1        0.1583
     15 C         143.2394  143.6787  161.4838 C.ar    1  UNL1        0.1586
     16 C         142.9038  144.4557  162.7222 C.ar    1  UNL1        0.1199
     17 N         141.6704  145.3085  162.7613 N.ar    1  UNL1       -0.2452
     18 S         144.4728  142.8259  161.4447 S.O2    1  UNL1        0.0168
     19 O         145.7428  142.1631  161.8892 O.2     1  UNL1       -0.1684
     20 O         144.5783  143.3728  162.8374 O.2     1  UNL1       -0.1684
     21 C         144.8083  142.0489  160.2062 C.3     1  UNL1        0.2032
     22 C         143.9105  142.1247  159.0070 C.3     1  UNL1        0.2312
     23 O         142.6771  142.9774  159.0462 O.3     1  UNL1       -0.4722
     24 C         138.4028  140.5273  165.2561 C.3     1  UNL1        0.0604
     25 O         138.8816  140.9576  170.3422 O.2     1  UNL1       -0.2670
     26 C         140.0808  140.3323  169.6935 C.ar    1  UNL1        0.2611
     27 C         141.2511  139.9090  170.5307 C.ar    1  UNL1        0.0623
     28 C         142.4503  139.2837  169.8820 C.ar    1  UNL1        0.0254
     29 C         142.4792  139.0816  168.3960 C.ar    1  UNL1        0.0972
     30 N         143.5287  138.4913  167.4902 N.ar    1  UNL1       -0.2400
     31 C         143.4144  138.3536  166.0009 C.ar    1  UNL1        0.1282
     32 C         142.1763  138.8245  165.2971 C.ar    1  UNL1        0.1588
     33 F         142.0620  138.6868  163.8078 F       1  UNL1       -0.2027
     34 C         141.0525  139.4331  166.0825 C.ar    1  UNL1        0.0500
     35 C         141.3088  139.5048  167.5587 C.ar    1  UNL1        0.0806
     36 N         140.1096  140.1302  168.2074 N.ar    1  UNL1       -0.2915
     37 C         139.1122  140.4448  167.1322 C.3     1  UNL1        0.1402
     38 C         139.6950  140.0140  165.8189 C.3     1  UNL1        0.1335
     39 O         140.0076  139.6905  164.3879 O.3     1  UNL1       -0.3806
     40 H         139.2628  139.9561  163.8262 H       1  UNL1        0.2108
@<TRIPOS>BOND
     1    25    26    2
     2    26    27   ar
     3    27    28   ar
     4    28    29   ar
     5    29    30   ar
     6    30    31   ar
     7    31    32   ar
     8    32    33    1
     9    32    34   ar
    10    34    35   ar
    11    35    36   ar
    12    36    37    1
    13    37    38    1
    14    38    39    1
    15    38    24    1
    16    24     1    1
    17     1     2    1
    18     2     3    1
    19     3     4    1
    20     4     9    1
    21     9    11    1
    22    11    12    1
    23    12    13   ar
    24    13    14   ar
    25    14    15   ar
    26    15    16   ar
    27    16    17   ar
    28    15    18    1
    29    18    19    2
    30    18    20    2
    31    18    21    1
    32    21    22    1
    33    22    23    1
    34     4     5    1
    35     5     6    1
    36     4     7    1
    37     7     8    1
    38    36    26   ar
    39     6     1    1
    40    35    29   ar
    41     8     1    1
    42    38    34    1
    43    17    12   ar
    44    23    14    1
    45    39    40    1
    46     9    10    1
@<TRIPOS>MOLECULE
*****
 40 46 0 0 0
SMALL
GASTEIGER

@<TRIPOS>ATOM
      1 C         144.0437  139.6585  164.4039 C.3     1  UNL1        0.0955
      2 C         144.4600  141.0778  164.6540 C.3     1  UNL1        0.0287
      3 C         144.9055  141.9413  163.5113 C.3     1  UNL1        0.0193
      4 C         144.9349  141.3855  162.1183 C.3     1  UNL1        0.0700
      5 C         144.5186  139.9663  161.8682 C.3     1  UNL1        0.0193
      6 C         144.0731  139.1028  163.0109 C.3     1  UNL1        0.0287
      7 C         144.6832  140.8740  162.7126 C.3     1  UNL1        0.1562
      8 O         144.2803  140.0933  163.7459 O.3     1  UNL1       -0.3571
      9 N         145.3804  142.2490  160.9755 N.3     1  UNL1       -0.2926
     10 H         145.9561  141.6631  160.3708 H       1  UNL1        0.1236
     11 C         144.3627  142.9116  160.0951 C.3     1  UNL1        0.1152
     12 C         142.9784  143.1698  160.6118 C.ar    1  UNL1        0.0780
     13 C         141.9184  142.1173  160.4755 C.ar    1  UNL1        0.0544
     14 C         140.5341  142.3756  160.9922 C.ar    1  UNL1        0.1583
     15 C         140.2098  143.6864  161.6453 C.ar    1  UNL1        0.1586
     16 C         141.2698  144.7389  161.7817 C.ar    1  UNL1        0.1199
     17 N         142.6541  144.4806  161.2649 N.ar    1  UNL1       -0.2452
     18 S         138.8255  143.9447  162.1620 S.O2    1  UNL1        0.0168
     19 O         137.6699  144.6540  162.8034 O.2     1  UNL1       -0.1684
     20 O         139.4842  145.2436  162.5212 O.2     1  UNL1       -0.1684
     21 C         137.7655  142.8920  162.0256 C.3     1  UNL1        0.2032
     22 C         138.0899  141.5813  161.3725 C.3     1  UNL1        0.2312
     23 O         139.4742  141.3230  160.8558 O.3     1  UNL1       -0.4722
     24 C         143.5982  138.7951  165.5467 C.3     1  UNL1        0.0604
     25 O         143.4809  140.6582  170.3214 O.2     1  UNL1       -0.2670
     26 C         142.1139  140.3879  169.7661 C.ar    1  UNL1        0.2611
     27 C         140.8977  140.6664  170.5986 C.ar    1  UNL1        0.0623
     28 C         139.5307  140.3962  170.0433 C.ar    1  UNL1        0.0254
     29 C         139.3799  139.8475  168.6555 C.ar    1  UNL1        0.0972
     30 N         138.1565  139.4863  167.8536 N.ar    1  UNL1       -0.2400
     31 C         138.1625  138.9401  166.4566 C.ar    1  UNL1        0.1282
     32 C         139.4636  138.7126  165.7458 C.ar    1  UNL1        0.1588
     33 F         139.4696  138.1664  164.3489 F       1  UNL1       -0.2027
     34 C         140.7588  139.0313  166.4321 C.ar    1  UNL1        0.0500
     35 C         140.5962  139.5690  167.8229 C.ar    1  UNL1        0.0806
     36 N         141.9632  139.8392  168.3782 N.ar    1  UNL1       -0.2915
     37 C         142.9706  139.4685  167.3306 C.3     1  UNL1        0.1402
     38 C         142.2263  138.9692  166.1278 C.3     1  UNL1        0.1335
     39 O         141.7688  138.4334  164.8035 O.3     1  UNL1       -0.3806
     40 H         142.5405  138.2456  164.2467 H       1  UNL1        0.2108
@<TRIPOS>BOND
     1    25    26    2
     2    26    27   ar
     3    27    28   ar
     4    28    29   ar
     5    29    30   ar
     6    30    31   ar
     7    31    32   ar
     8    32    33    1
     9    32    34   ar
    10    34    35   ar
    11    35    36   ar
    12    36    37    1
    13    37    38    1
    14    38    39    1
    15    38    24    1
    16    24     1    1
    17     1     2    1
    18     2     3    1
    19     3     4    1
    20     4     9    1
    21     9    11    1
    22    11    12    1
    23    12    13   ar
    24    13    14   ar
    25    14    15   ar
    26    15    16   ar
    27    16    17   ar
    28    15    18    1
    29    18    19    2
    30    18    20    2
    31    18    21    1
    32    21    22    1
    33    22    23    1
    34     4     5    1
    35     5     6    1
    36     4     7    1
    37     7     8    1
    38    36    26   ar
    39     6     1    1
    40    35    29   ar
    41     8     1    1
    42    38    34    1
    43    17    12   ar
    44    23    14    1
    45    39    40    1
    46     9    10    1
@<TRIPOS>MOLECULE
*****
 40 46 0 0 0
SMALL
GASTEIGER

@<TRIPOS>ATOM
      1 C         138.4108  139.3295  164.5707 C.3     1  UNL1        0.0955
      2 C         138.7073  138.5897  163.2999 C.3     1  UNL1        0.0287
      3 C         138.3724  139.2096  161.9756 C.3     1  UNL1        0.0193
      4 C         137.7410  140.5691  161.9221 C.3     1  UNL1        0.0700
      5 C         137.4445  141.3088  163.1929 C.3     1  UNL1        0.0193
      6 C         137.7793  140.6890  164.5172 C.3     1  UNL1        0.0287
      7 C         137.9065  140.2703  162.6714 C.3     1  UNL1        0.1562
      8 O         138.2093  139.7098  163.8688 O.3     1  UNL1       -0.3571
      9 N         137.4061  141.1890  160.5979 N.3     1  UNL1       -0.2926
     10 H         136.6079  141.8045  160.7543 H       1  UNL1        0.1236
     11 C         138.4372  141.9949  159.8649 C.3     1  UNL1        0.1152
     12 C         139.5680  142.6297  160.6188 C.ar    1  UNL1        0.0780
     13 C         140.9473  142.0462  160.5338 C.ar    1  UNL1        0.0544
     14 C         142.0780  142.6810  161.2877 C.ar    1  UNL1        0.1583
     15 C         141.8295  143.8995  162.1266 C.ar    1  UNL1        0.1586
     16 C         140.4503  144.4830  162.2116 C.ar    1  UNL1        0.1199
     17 N         139.3196  143.8481  161.4577 N.ar    1  UNL1       -0.2452
     18 S         142.9603  144.5343  162.8805 S.O2    1  UNL1        0.0168
     19 O         143.7014  145.4866  163.7713 O.2     1  UNL1       -0.1684
     20 O         141.8384  145.4486  163.2749 O.2     1  UNL1       -0.1684
     21 C         144.3395  143.9507  162.7955 C.3     1  UNL1        0.2032
     22 C         144.5879  142.7323  161.9566 C.3     1  UNL1        0.2312
     23 O         143.4572  142.0974  161.2027 O.3     1  UNL1       -0.4722
     24 C         138.7457  138.7096  165.8950 C.3     1  UNL1        0.0604
     25 O         143.1180  141.0510  164.5976 O.2     1  UNL1       -0.2670
     26 C         142.6997  141.3356  166.0097 C.ar    1  UNL1        0.2611
     27 C         143.5403  142.2262  166.8758 C.ar    1  UNL1        0.0623
     28 C         143.1220  142.5109  168.2879 C.ar    1  UNL1        0.0254
     29 C         141.8632  141.9049  168.8339 C.ar    1  UNL1        0.0972
     30 N         141.2101  142.0131  170.1874 N.ar    1  UNL1       -0.2400
     31 C         139.9326  141.3395  170.5929 C.ar    1  UNL1        0.1282
     32 C         139.1979  140.4732  169.6133 C.ar    1  UNL1        0.1588
     33 F         137.9205  139.7996  170.0188 F       1  UNL1       -0.2027
     34 C         139.7406  140.2804  168.2283 C.ar    1  UNL1        0.0500
     35 C         141.0226  141.0143  167.9677 C.ar    1  UNL1        0.0806
     36 N         141.4409  140.7296  166.5556 N.ar    1  UNL1       -0.2915
     37 C         140.4174  139.8199  165.9435 C.3     1  UNL1        0.1402
     38 C         139.3665  139.5422  166.9772 C.3     1  UNL1        0.1335
     39 O         138.1859  139.0905  167.7847 O.3     1  UNL1       -0.3806
     40 H         137.6264  138.5117  167.2436 H       1  UNL1        0.2108
@<TRIPOS>BOND
     1    25    26    2
     2    26    27   ar
     3    27    28   ar
     4    28    29   ar
     5    29    30   ar
     6    30    31   ar
     7    31    32   ar
     8    32    33    1
     9    32    34   ar
    10    34    35   ar
    11    35    36   ar
    12    36    37    1
    13    37    38    1
    14    38    39    1
    15    38    24    1
    16    24     1    1
    17     1     2    1
    18     2     3    1
    19     3     4    1
    20     4     9    1
    21     9    11    1
    22    11    12    1
    23    12    13   ar
    24    13    14   ar
    25    14    15   ar
    26    15    16   ar
    27    16    17   ar
    28    15    18    1
    29    18    19    2
    30    18    20    2
    31    18    21    1
    32    21    22    1
    33    22    23    1
    34     4     5    1
    35     5     6    1
    36     4     7    1
    37     7     8    1
    38    36    26   ar
    39     6     1    1
    40    35    29   ar
    41     8     1    1
    42    38    34    1
    43    17    12   ar
    44    23    14    1
    45    39    40    1
    46     9    10    1
@<TRIPOS>MOLECULE
*****
 40 46 0 0 0
SMALL
GASTEIGER

@<TRIPOS>ATOM
      1 C         142.9735  143.2283  164.2486 C.3     1  UNL1        0.0955
      2 C         141.9078  144.2801  164.3402 C.3     1  UNL1        0.0287
      3 C         141.4914  145.0347  163.1126 C.3     1  UNL1        0.0193
      4 C         142.1405  144.7376  161.7933 C.3     1  UNL1        0.0700
      5 C         143.2060  143.6859  161.7017 C.3     1  UNL1        0.0193
      6 C         143.6226  142.9312  162.9294 C.3     1  UNL1        0.0287
      7 C         142.4020  144.2979  162.4386 C.3     1  UNL1        0.1562
      8 O         142.7786  143.6156  163.5486 O.3     1  UNL1       -0.3571
      9 N         141.7240  145.4923  160.5657 N.3     1  UNL1       -0.2926
     10 H         142.5552  145.5871  159.9822 H       1  UNL1        0.1236
     11 C         140.6366  144.9511  159.6856 C.3     1  UNL1        0.1152
     12 C         140.0196  143.6180  159.9894 C.ar    1  UNL1        0.0780
     13 C         140.6139  142.3674  159.4124 C.ar    1  UNL1        0.0544
     14 C         139.9969  141.0344  159.7163 C.ar    1  UNL1        0.1583
     15 C         138.7856  140.9519  160.5972 C.ar    1  UNL1        0.1586
     16 C         138.1913  142.2024  161.1742 C.ar    1  UNL1        0.1199
     17 N         138.8083  143.5355  160.8703 N.ar    1  UNL1       -0.2452
     18 S         138.1686  139.6189  160.9010 S.O2    1  UNL1        0.0168
     19 O         137.2323  138.5969  161.4744 O.2     1  UNL1       -0.1684
     20 O         137.2491  140.5145  161.6772 O.2     1  UNL1       -0.1684
     21 C         138.7629  138.3683  160.3239 C.3     1  UNL1        0.2032
     22 C         139.9742  138.4509  159.4431 C.3     1  UNL1        0.2312
     23 O         140.5912  139.7839  159.1392 O.3     1  UNL1       -0.4722
     24 C         143.3899  142.4737  165.4762 C.3     1  UNL1        0.0604
     25 O         143.7642  143.3742  170.5093 O.2     1  UNL1       -0.2670
     26 C         142.6242  142.4632  170.1621 C.ar    1  UNL1        0.2611
     27 C         141.7398  141.9219  171.2459 C.ar    1  UNL1        0.0623
     28 C         140.5998  141.0109  170.8987 C.ar    1  UNL1        0.0254
     29 C         140.3443  140.6412  169.4677 C.ar    1  UNL1        0.0972
     30 N         139.2941  139.7640  168.8368 N.ar    1  UNL1       -0.2400
     31 C         139.1621  139.4839  167.3691 C.ar    1  UNL1        0.1282
     32 C         140.1259  140.0996  166.3985 C.ar    1  UNL1        0.1588
     33 F         139.9939  139.8195  164.9308 F       1  UNL1       -0.2027
     34 C         141.2217  140.9952  166.8956 C.ar    1  UNL1        0.0500
     35 C         141.2287  141.1825  168.3838 C.ar    1  UNL1        0.0806
     36 N         142.3686  142.0935  168.7310 N.ar    1  UNL1       -0.2915
     37 C         143.0662  142.4692  167.4573 C.3     1  UNL1        0.1402
     38 C         142.3573  141.7905  166.3230 C.3     1  UNL1        0.1335
     39 O         141.8643  141.2545  165.0116 O.3     1  UNL1       -0.3806
     40 H         142.4227  141.5922  164.2939 H       1  UNL1        0.2108
@<TRIPOS>BOND
     1    25    26    2
     2    26    27   ar
     3    27    28   ar
     4    28    29   ar
     5    29    30   ar
     6    30    31   ar
     7    31    32   ar
     8    32    33    1
     9    32    34   ar
    10    34    35   ar
    11    35    36   ar
    12    36    37    1
    13    37    38    1
    14    38    39    1
    15    38    24    1
    16    24     1    1
    17     1     2    1
    18     2     3    1
    19     3     4    1
    20     4     9    1
    21     9    11    1
    22    11    12    1
    23    12    13   ar
    24    13    14   ar
    25    14    15   ar
    26    15    16   ar
    27    16    17   ar
    28    15    18    1
    29    18    19    2
    30    18    20    2
    31    18    21    1
    32    21    22    1
    33    22    23    1
    34     4     5    1
    35     5     6    1
    36     4     7    1
    37     7     8    1
    38    36    26   ar
    39     6     1    1
    40    35    29   ar
    41     8     1    1
    42    38    34    1
    43    17    12   ar
    44    23    14    1
    45    39    40    1
    46     9    10    1
@<TRIPOS>MOLECULE
*****
 40 46 0 0 0
SMALL
GASTEIGER

@<TRIPOS>ATOM
      1 C         138.0602  140.3691  164.0264 C.3     1  UNL1        0.0955
      2 C         138.0255  139.6199  162.7272 C.3     1  UNL1        0.0287
      3 C         137.9033  140.3683  161.4330 C.3     1  UNL1        0.0193
      4 C         137.8159  141.8658  161.4378 C.3     1  UNL1        0.0700
      5 C         137.8507  142.6148  162.7370 C.3     1  UNL1        0.0193
      6 C         137.9728  141.8665  164.0313 C.3     1  UNL1        0.0287
      7 C         137.8818  141.4994  162.1724 C.3     1  UNL1        0.1562
      8 O         137.9923  140.8227  163.3426 O.3     1  UNL1       -0.3571
      9 N         137.6938  142.6142  160.1436 N.3     1  UNL1       -0.2926
     10 H         137.1895  143.4767  160.3487 H       1  UNL1        0.1236
     11 C         138.9268  143.0037  159.3834 C.3     1  UNL1        0.1152
     12 C         140.2781  142.8482  160.0156 C.ar    1  UNL1        0.0780
     13 C         140.7884  143.8941  160.9619 C.ar    1  UNL1        0.0544
     14 C         142.1398  143.7385  161.5940 C.ar    1  UNL1        0.1583
     15 C         142.9809  142.5369  161.2798 C.ar    1  UNL1        0.1586
     16 C         142.4706  141.4910  160.3335 C.ar    1  UNL1        0.1199
     17 N         141.1192  141.6466  159.7013 N.ar    1  UNL1       -0.2452
     18 S         144.3323  142.3813  161.9119 S.O2    1  UNL1        0.0168
     19 O         145.6674  141.7913  162.2570 O.2     1  UNL1       -0.1684
     20 O         144.2857  141.1304  161.0854 O.2     1  UNL1       -0.1684
     21 C         144.8425  143.4273  162.8583 C.3     1  UNL1        0.2032
     22 C         144.0014  144.6288  163.1725 C.3     1  UNL1        0.2312
     23 O         142.6500  144.7845  162.5404 O.3     1  UNL1       -0.4722
     24 C         138.1824  139.6207  165.3206 C.3     1  UNL1        0.0604
     25 O         138.5440  140.9058  170.2704 O.2     1  UNL1       -0.2670
     26 C         139.8303  140.3765  169.7088 C.ar    1  UNL1        0.2611
     27 C         141.0439  140.2716  170.5841 C.ar    1  UNL1        0.0623
     28 C         142.3302  139.7423  170.0226 C.ar    1  UNL1        0.0254
     29 C         142.4029  139.3179  168.5858 C.ar    1  UNL1        0.0972
     30 N         143.5383  138.7601  167.7671 N.ar    1  UNL1       -0.2400
     31 C         143.4597  138.3763  166.3192 C.ar    1  UNL1        0.1282
     32 C         142.1708  138.5382  165.5693 C.ar    1  UNL1        0.1588
     33 F         142.0922  138.1544  164.1214 F       1  UNL1       -0.2027
     34 C         140.9603  139.0838  166.2673 C.ar    1  UNL1        0.0500
     35 C         141.1893  139.4228  167.7105 C.ar    1  UNL1        0.0806
     36 N         139.9030  139.9521  168.2720 N.ar    1  UNL1       -0.2915
     37 C         138.8791  139.9402  167.1759 C.3     1  UNL1        0.1402
     38 C         139.5326  139.4036  165.9369 C.3     1  UNL1        0.1335
     39 O         139.9038  138.9124  164.5691 O.3     1  UNL1       -0.3806
     40 H         139.1323  138.9710  163.9841 H       1  UNL1        0.2108
@<TRIPOS>BOND
     1    25    26    2
     2    26    27   ar
     3    27    28   ar
     4    28    29   ar
     5    29    30   ar
     6    30    31   ar
     7    31    32   ar
     8    32    33    1
     9    32    34   ar
    10    34    35   ar
    11    35    36   ar
    12    36    37    1
    13    37    38    1
    14    38    39    1
    15    38    24    1
    16    24     1    1
    17     1     2    1
    18     2     3    1
    19     3     4    1
    20     4     9    1
    21     9    11    1
    22    11    12    1
    23    12    13   ar
    24    13    14   ar
    25    14    15   ar
    26    15    16   ar
    27    16    17   ar
    28    15    18    1
    29    18    19    2
    30    18    20    2
    31    18    21    1
    32    21    22    1
    33    22    23    1
    34     4     5    1
    35     5     6    1
    36     4     7    1
    37     7     8    1
    38    36    26   ar
    39     6     1    1
    40    35    29   ar
    41     8     1    1
    42    38    34    1
    43    17    12   ar
    44    23    14    1
    45    39    40    1
    46     9    10    1
@<TRIPOS>MOLECULE
*****
 40 46 0 0 0
SMALL
GASTEIGER

@<TRIPOS>ATOM
      1 C         144.7623  141.4916  161.9340 C.3     1  UNL1        0.0955
      2 C         144.0861  140.1554  161.8457 C.3     1  UNL1        0.0287
      3 C         144.0992  139.2288  163.0252 C.3     1  UNL1        0.0193
      4 C         144.7884  139.6383  164.2930 C.3     1  UNL1        0.0700
      5 C         145.4645  140.9743  164.3813 C.3     1  UNL1        0.0193
      6 C         145.4515  141.9010  163.2018 C.3     1  UNL1        0.0287
      7 C         144.8078  140.1799  163.6730 C.3     1  UNL1        0.1562
      8 O         144.7959  141.0178  162.6066 O.3     1  UNL1       -0.3571
      9 N         144.8015  138.7117  165.4725 N.3     1  UNL1       -0.2926
     10 H         145.3667  139.1604  166.1933 H       1  UNL1        0.1236
     11 C         143.5117  138.3074  166.1229 C.3     1  UNL1        0.1152
     12 C         142.9306  139.1467  167.2219 C.ar    1  UNL1        0.0780
     13 C         142.1948  140.4113  166.8908 C.ar    1  UNL1        0.0544
     14 C         141.6137  141.2505  167.9899 C.ar    1  UNL1        0.1583
     15 C         141.7683  140.8252  169.4200 C.ar    1  UNL1        0.1586
     16 C         142.5040  139.5607  169.7510 C.ar    1  UNL1        0.1199
     17 N         143.0851  138.7214  168.6520 N.ar    1  UNL1       -0.2452
     18 S         141.1871  141.6645  170.5191 S.O2    1  UNL1        0.0168
     19 O         140.8169  142.1195  171.8995 O.2     1  UNL1       -0.1684
     20 O         141.7943  140.5579  171.3295 O.2     1  UNL1       -0.1684
     21 C         140.4514  142.9291  170.1879 C.3     1  UNL1        0.2032
     22 C         140.2969  143.3543  168.7578 C.3     1  UNL1        0.2312
     23 O         140.8780  142.5151  167.6588 O.3     1  UNL1       -0.4722
     24 C         144.7492  142.4182  160.7545 C.3     1  UNL1        0.0604
     25 O         143.2383  142.0541  155.8691 O.2     1  UNL1       -0.2670
     26 C         142.3349  142.9192  156.6970 C.ar    1  UNL1        0.2611
     27 C         141.1367  143.5683  156.0700 C.ar    1  UNL1        0.0623
     28 C         140.2333  144.4334  156.8979 C.ar    1  UNL1        0.0254
     29 C         140.5280  144.6494  158.3527 C.ar    1  UNL1        0.0972
     30 N         139.8100  145.4514  159.4071 N.ar    1  UNL1       -0.2400
     31 C         140.2299  145.5749  160.8418 C.ar    1  UNL1        0.1282
     32 C         141.4582  144.8640  161.3275 C.ar    1  UNL1        0.1588
     33 F         141.8781  144.9875  162.7622 F       1  UNL1       -0.2027
     34 C         142.2666  144.0298  160.3785 C.ar    1  UNL1        0.0500
     35 C         141.7261  144.0003  158.9796 C.ar    1  UNL1        0.0806
     36 N         142.6295  143.1352  158.1517 N.ar    1  UNL1       -0.2915
     37 C         143.7284  142.6300  159.0390 C.3     1  UNL1        0.1402
     38 C         143.5042  143.1829  160.4153 C.3     1  UNL1        0.1335
     39 O         143.5401  143.5760  161.8624 O.3     1  UNL1       -0.3806
     40 H         144.3088  143.1667  162.2896 H       1  UNL1        0.2108
@<TRIPOS>BOND
     1    25    26    2
     2    26    27   ar
     3    27    28   ar
     4    28    29   ar
     5    29    30   ar
     6    30    31   ar
     7    31    32   ar
     8    32    33    1
     9    32    34   ar
    10    34    35   ar
    11    35    36   ar
    12    36    37    1
    13    37    38    1
    14    38    39    1
    15    38    24    1
    16    24     1    1
    17     1     2    1
    18     2     3    1
    19     3     4    1
    20     4     9    1
    21     9    11    1
    22    11    12    1
    23    12    13   ar
    24    13    14   ar
    25    14    15   ar
    26    15    16   ar
    27    16    17   ar
    28    15    18    1
    29    18    19    2
    30    18    20    2
    31    18    21    1
    32    21    22    1
    33    22    23    1
    34     4     5    1
    35     5     6    1
    36     4     7    1
    37     7     8    1
    38    36    26   ar
    39     6     1    1
    40    35    29   ar
    41     8     1    1
    42    38    34    1
    43    17    12   ar
    44    23    14    1
    45    39    40    1
    46     9    10    1
@<TRIPOS>MOLECULE
*****
 40 46 0 0 0
SMALL
GASTEIGER

@<TRIPOS>ATOM
      1 C         142.2128  137.9741  162.5904 C.3     1  UNL1        0.0955
      2 C         140.8052  137.7143  162.1415 C.3     1  UNL1        0.0287
      3 C         139.6800  137.7684  163.1320 C.3     1  UNL1        0.0193
      4 C         139.9624  138.0821  164.5714 C.3     1  UNL1        0.0700
      5 C         141.3699  138.3418  165.0202 C.3     1  UNL1        0.0193
      6 C         142.4951  138.2878  164.0297 C.3     1  UNL1        0.0287
      7 C         140.6118  138.0637  164.0653 C.3     1  UNL1        0.1562
      8 O         141.6291  138.0148  163.1697 O.3     1  UNL1       -0.3571
      9 N         138.8373  138.1362  165.5619 N.3     1  UNL1       -0.2926
     10 H         139.2156  137.8201  166.4549 H       1  UNL1        0.1236
     11 C         138.1318  139.4334  165.8254 C.3     1  UNL1        0.1152
     12 C         138.4080  140.6267  164.9596 C.ar    1  UNL1        0.0780
     13 C         139.4896  141.5943  165.3387 C.ar    1  UNL1        0.0544
     14 C         139.7658  142.7876  164.4728 C.ar    1  UNL1        0.1583
     15 C         138.9603  143.0133  163.2278 C.ar    1  UNL1        0.1586
     16 C         137.8787  142.0457  162.8486 C.ar    1  UNL1        0.1199
     17 N         137.6025  140.8524  163.7145 N.ar    1  UNL1       -0.2452
     18 S         139.2365  144.2066  162.3619 S.O2    1  UNL1        0.0168
     19 O         139.1234  145.1814  161.2275 O.2     1  UNL1       -0.1684
     20 O         138.1156  143.5776  161.5887 O.2     1  UNL1       -0.1684
     21 C         140.3182  145.1742  162.7412 C.3     1  UNL1        0.2032
     22 C         141.1236  144.9484  163.9862 C.3     1  UNL1        0.2312
     23 O         140.8475  143.7551  164.8521 O.3     1  UNL1       -0.4722
     24 C         143.3379  137.9200  161.5998 C.3     1  UNL1        0.0604
     25 O         142.0851  136.4667  156.8458 O.2     1  UNL1       -0.2670
     26 C         142.5182  137.9007  156.9232 C.ar    1  UNL1        0.2611
     27 C         142.5486  138.7429  155.6823 C.ar    1  UNL1        0.0623
     28 C         142.9817  140.1770  155.7597 C.ar    1  UNL1        0.0254
     29 C         143.3843  140.7688  157.0779 C.ar    1  UNL1        0.0972
     30 N         143.8535  142.1520  157.4481 N.ar    1  UNL1       -0.2400
     31 C         144.2259  142.6032  158.8293 C.ar    1  UNL1        0.1282
     32 C         144.1452  141.6433  159.9791 C.ar    1  UNL1        0.1588
     33 F         144.5177  142.0944  161.3603 F       1  UNL1       -0.2027
     34 C         143.6920  140.2322  159.7477 C.ar    1  UNL1        0.0500
     35 C         143.3538  139.9266  158.3187 C.ar    1  UNL1        0.0806
     36 N         142.9208  138.4925  158.2413 N.ar    1  UNL1       -0.2915
     37 C         142.9913  137.9119  159.6226 C.3     1  UNL1        0.1402
     38 C         143.4680  138.9870  160.5536 C.3     1  UNL1        0.1335
     39 O         143.9175  139.8392  161.7033 O.3     1  UNL1       -0.3806
     40 H         143.9058  139.3141  162.5189 H       1  UNL1        0.2108
@<TRIPOS>BOND
     1    25    26    2
     2    26    27   ar
     3    27    28   ar
     4    28    29   ar
     5    29    30   ar
     6    30    31   ar
     7    31    32   ar
     8    32    33    1
     9    32    34   ar
    10    34    35   ar
    11    35    36   ar
    12    36    37    1
    13    37    38    1
    14    38    39    1
    15    38    24    1
    16    24     1    1
    17     1     2    1
    18     2     3    1
    19     3     4    1
    20     4     9    1
    21     9    11    1
    22    11    12    1
    23    12    13   ar
    24    13    14   ar
    25    14    15   ar
    26    15    16   ar
    27    16    17   ar
    28    15    18    1
    29    18    19    2
    30    18    20    2
    31    18    21    1
    32    21    22    1
    33    22    23    1
    34     4     5    1
    35     5     6    1
    36     4     7    1
    37     7     8    1
    38    36    26   ar
    39     6     1    1
    40    35    29   ar
    41     8     1    1
    42    38    34    1
    43    17    12   ar
    44    23    14    1
    45    39    40    1
    46     9    10    1
@<TRIPOS>MOLECULE
*****
 40 46 0 0 0
SMALL
GASTEIGER

@<TRIPOS>ATOM
      1 C         143.8205  139.9692  159.8241 C.3     1  UNL1        0.0955
      2 C         143.2101  139.8202  158.4619 C.3     1  UNL1        0.0287
      3 C         143.0241  141.0247  157.5875 C.3     1  UNL1        0.0193
      4 C         143.4486  142.3782  158.0752 C.3     1  UNL1        0.0700
      5 C         144.0590  142.5272  159.4372 C.3     1  UNL1        0.0193
      6 C         144.2450  141.3227  160.3117 C.3     1  UNL1        0.0287
      7 C         143.5706  141.7474  158.5902 C.3     1  UNL1        0.1562
      8 O         143.7388  140.6583  159.3809 O.3     1  UNL1       -0.3571
      9 N         143.2627  143.5827  157.2008 N.3     1  UNL1       -0.2926
     10 H         143.2526  143.2484  156.2372 H       1  UNL1        0.1236
     11 C         142.0525  144.4526  157.3699 C.3     1  UNL1        0.1152
     12 C         141.2920  144.4364  158.6628 C.ar    1  UNL1        0.0780
     13 C         140.2908  143.3520  158.9306 C.ar    1  UNL1        0.0544
     14 C         139.5304  143.3359  160.2235 C.ar    1  UNL1        0.1583
     15 C         139.7711  144.4042  161.2485 C.ar    1  UNL1        0.1586
     16 C         140.7723  145.4886  160.9808 C.ar    1  UNL1        0.1199
     17 N         141.5327  145.5047  159.6879 N.ar    1  UNL1       -0.2452
     18 S         139.0107  144.3881  162.5414 S.O2    1  UNL1        0.0168
     19 O         138.5413  144.7980  163.9058 O.2     1  UNL1       -0.1684
     20 O         139.8489  145.6149  162.7475 O.2     1  UNL1       -0.1684
     21 C         138.0095  143.3036  162.8091 C.3     1  UNL1        0.2032
     22 C         137.7688  142.2354  161.7840 C.3     1  UNL1        0.2312
     23 O         138.5292  142.2515  160.4912 O.3     1  UNL1       -0.4722
     24 C         144.0065  138.7647  160.6985 C.3     1  UNL1        0.0604
     25 O         138.9830  137.7830  160.9873 O.2     1  UNL1       -0.2670
     26 C         139.6129  138.0052  162.3304 C.ar    1  UNL1        0.2611
     27 C         138.7765  137.9276  163.5731 C.ar    1  UNL1        0.0623
     28 C         139.4064  138.1498  164.9162 C.ar    1  UNL1        0.0254
     29 C         140.8727  138.4496  165.0165 C.ar    1  UNL1        0.0972
     30 N         141.7575  138.7118  166.2076 N.ar    1  UNL1       -0.2400
     31 C         143.2282  139.0013  166.1514 C.ar    1  UNL1        0.1282
     32 C         143.9335  139.0469  164.8283 C.ar    1  UNL1        0.1588
     33 F         145.4043  139.3364  164.7721 F       1  UNL1       -0.2027
     34 C         143.1681  138.8031  163.5615 C.ar    1  UNL1        0.0500
     35 C         141.7091  138.5272  163.7738 C.ar    1  UNL1        0.0806
     36 N         141.0792  138.3050  162.4308 N.ar    1  UNL1       -0.2915
     37 C         142.1490  138.4436  161.3884 C.3     1  UNL1        0.1402
     38 C         143.4400  138.7515  162.0873 C.3     1  UNL1        0.1335
     39 O         144.8495  139.0621  162.4959 O.3     1  UNL1       -0.3806
     40 H         145.4102  139.1173  161.7063 H       1  UNL1        0.2108
@<TRIPOS>BOND
     1    25    26    2
     2    26    27   ar
     3    27    28   ar
     4    28    29   ar
     5    29    30   ar
     6    30    31   ar
     7    31    32   ar
     8    32    33    1
     9    32    34   ar
    10    34    35   ar
    11    35    36   ar
    12    36    37    1
    13    37    38    1
    14    38    39    1
    15    38    24    1
    16    24     1    1
    17     1     2    1
    18     2     3    1
    19     3     4    1
    20     4     9    1
    21     9    11    1
    22    11    12    1
    23    12    13   ar
    24    13    14   ar
    25    14    15   ar
    26    15    16   ar
    27    16    17   ar
    28    15    18    1
    29    18    19    2
    30    18    20    2
    31    18    21    1
    32    21    22    1
    33    22    23    1
    34     4     5    1
    35     5     6    1
    36     4     7    1
    37     7     8    1
    38    36    26   ar
    39     6     1    1
    40    35    29   ar
    41     8     1    1
    42    38    34    1
    43    17    12   ar
    44    23    14    1
    45    39    40    1
    46     9    10    1
@<TRIPOS>MOLECULE
*****
 40 46 0 0 0
SMALL
GASTEIGER

@<TRIPOS>ATOM
      1 C         142.3343  137.9984  162.6730 C.3     1  UNL1        0.0955
      2 C         142.5507  138.3996  164.1022 C.3     1  UNL1        0.0287
      3 C         141.3926  138.4343  165.0550 C.3     1  UNL1        0.0193
      4 C         140.0183  138.0679  164.5787 C.3     1  UNL1        0.0700
      5 C         139.8019  137.6668  163.1496 C.3     1  UNL1        0.0193
      6 C         140.9599  137.6321  162.1967 C.3     1  UNL1        0.0287
      7 C         140.6219  138.0340  164.0196 C.3     1  UNL1        0.1562
      8 O         141.6689  138.0026  163.1581 O.3     1  UNL1       -0.3571
      9 N         138.8602  138.1027  165.5315 N.3     1  UNL1       -0.2926
     10 H         139.2196  137.8165  166.4422 H       1  UNL1        0.1236
     11 C         138.1039  139.3801  165.7462 C.3     1  UNL1        0.1152
     12 C         138.3923  140.5759  164.8878 C.ar    1  UNL1        0.0780
     13 C         139.4464  141.5596  165.3016 C.ar    1  UNL1        0.0544
     14 C         139.7348  142.7554  164.4431 C.ar    1  UNL1        0.1583
     15 C         138.9691  142.9675  163.1709 C.ar    1  UNL1        0.1586
     16 C         137.9150  141.9838  162.7571 C.ar    1  UNL1        0.1199
     17 N         137.6267  140.7880  163.6155 N.ar    1  UNL1       -0.2452
     18 S         139.2575  144.1632  162.3124 S.O2    1  UNL1        0.0168
     19 O         139.1692  145.1345  161.1728 O.2     1  UNL1       -0.1684
     20 O         138.1727  143.5168  161.5028 O.2     1  UNL1       -0.1684
     21 C         140.3116  145.1469  162.7263 C.3     1  UNL1        0.2032
     22 C         141.0773  144.9348  163.9986 C.3     1  UNL1        0.2312
     23 O         140.7889  143.7390  164.8570 O.3     1  UNL1       -0.4722
     24 C         143.4923  137.9637  161.7202 C.3     1  UNL1        0.0604
     25 O         143.9794  143.0301  161.1066 O.2     1  UNL1       -0.2670
     26 C         143.6878  142.3116  159.8226 C.ar    1  UNL1        0.2611
     27 C         143.5692  143.0831  158.5417 C.ar    1  UNL1        0.0623
     28 C         143.2775  142.3646  157.2577 C.ar    1  UNL1        0.0254
     29 C         143.1044  140.8746  157.2546 C.ar    1  UNL1        0.0972
     30 N         142.8110  139.9073  156.1372 N.ar    1  UNL1       -0.2400
     31 C         142.6636  138.4223  156.2889 C.ar    1  UNL1        0.1282
     32 C         142.8096  137.7884  157.6405 C.ar    1  UNL1        0.1588
     33 F         142.6623  136.3034  157.7922 F       1  UNL1       -0.2027
     34 C         143.1030  138.6394  158.8404 C.ar    1  UNL1        0.0500
     35 C         143.2230  140.1032  158.5355 C.ar    1  UNL1        0.0806
     36 N         143.5147  140.8217  159.8195 N.ar    1  UNL1       -0.2915
     37 C         143.5749  139.8019  160.9179 C.3     1  UNL1        0.1402
     38 C         143.3205  138.4532  160.3128 C.3     1  UNL1        0.1335
     39 O         143.1019  137.0022  160.0019 O.3     1  UNL1       -0.3806
     40 H         143.1742  136.4823  160.8176 H       1  UNL1        0.2108
@<TRIPOS>BOND
     1    25    26    2
     2    26    27   ar
     3    27    28   ar
     4    28    29   ar
     5    29    30   ar
     6    30    31   ar
     7    31    32   ar
     8    32    33    1
     9    32    34   ar
    10    34    35   ar
    11    35    36   ar
    12    36    37    1
    13    37    38    1
    14    38    39    1
    15    38    24    1
    16    24     1    1
    17     1     2    1
    18     2     3    1
    19     3     4    1
    20     4     9    1
    21     9    11    1
    22    11    12    1
    23    12    13   ar
    24    13    14   ar
    25    14    15   ar
    26    15    16   ar
    27    16    17   ar
    28    15    18    1
    29    18    19    2
    30    18    20    2
    31    18    21    1
    32    21    22    1
    33    22    23    1
    34     4     5    1
    35     5     6    1
    36     4     7    1
    37     7     8    1
    38    36    26   ar
    39     6     1    1
    40    35    29   ar
    41     8     1    1
    42    38    34    1
    43    17    12   ar
    44    23    14    1
    45    39    40    1
    46     9    10    1
