@<TRIPOS>MOLECULE
*****
 37 39 0 0 0
SMALL
GASTEIGER

@<TRIPOS>ATOM
      1 N         141.3656  138.1603  157.6754 N.3     1  UNL1       -0.2705
      2 C         139.9310  138.2110  158.1107 C.3     1  UNL1        0.0739
      3 C         139.5874  138.6041  159.5169 C.3     1  UNL1        0.0394
      4 C         140.6783  138.9465  160.4878 C.3     1  UNL1        0.1017
      5 C         142.1129  138.8958  160.0525 C.3     1  UNL1        0.1490
      6 C         142.4565  138.5027  158.6462 C.3     1  UNL1        0.1037
      7 N         140.3347  139.3395  161.8941 N.am    1  UNL1       -0.2999
      8 C         140.4063  138.3238  162.9955 C.2     1  UNL1        0.2488
      9 O         140.8215  136.9150  162.6907 O.2     1  UNL1       -0.2700
     10 H         140.0622  140.2642  162.0941 H       1  UNL1        0.1498
     11 C         140.0626  138.7170  164.4016 C.ar    1  UNL1        0.0882
     12 C         138.8290  138.1668  165.0540 C.ar    1  UNL1        0.0202
     13 C         138.4854  138.5599  166.4602 C.ar    1  UNL1        0.0709
     14 CL        137.2518  138.0098  167.1125 Cl      1  UNL1       -0.0810
     15 C         139.3753  139.5032  167.2140 C.ar    1  UNL1        0.0553
     16 N         139.0317  139.8963  168.6202 N.pl3   1  UNL1       -0.3563
     17 C         140.6089  140.0533  166.5617 C.ar    1  UNL1        0.0520
     18 C         140.9526  139.6602  165.1555 C.ar    1  UNL1        0.1443
     19 H         138.2220  139.5352  169.0484 H       1  UNL1        0.1424
     20 H         139.6158  140.5154  169.1149 H       1  UNL1        0.1424
     21 O         142.1862  140.2104  164.5031 O.3     1  UNL1       -0.4712
     22 C         142.1690  141.5866  163.9068 C.3     1  UNL1        0.2525
     23 O         143.2038  139.2382  161.0234 O.3     1  UNL1       -0.3505
     24 C         143.9488  138.1450  161.7305 C.3     1  UNL1        0.1741
     25 C         141.7091  137.7672  156.2692 C.3     1  UNL1        0.0722
     26 C         143.1048  132.0710  155.0023 C.2     1  UNL1        0.4049
     27 O         142.0906  131.1770  154.3526 O.2     1  UNL1       -0.2262
     28 N         142.7559  133.4950  155.3190 N.am    1  UNL1       -0.2460
     29 C         143.7701  134.3890  155.9687 C.3     1  UNL1        0.0968
     30 C         143.4212  135.8131  156.2854 C.3     1  UNL1        0.0231
     31 C         142.0581  136.3432  155.9525 C.3     1  UNL1        0.0194
     32 C         141.0439  135.4492  155.3028 C.3     1  UNL1        0.0231
     33 C         141.3928  134.0251  154.9861 C.3     1  UNL1        0.0968
     34 O         144.4679  131.5409  155.3353 O.3     1  UNL1       -0.4345
     35 C         144.6354  130.5470  156.4462 C.3     1  UNL1        0.2101
     36 C         145.6034  132.2815  158.1209 C.3     1  UNL1        0.0040
     37 C         144.8318  131.0229  157.8551 C.3     1  UNL1        0.0475
@<TRIPOS>BOND
     1    36    37    1
     2    37    35    1
     3    35    34    1
     4    34    26    1
     5    26    27    2
     6    26    28   am
     7    28    29    1
     8    29    30    1
     9    30    31    1
    10    31    25    1
    11    25     1    1
    12     1     2    1
    13     2     3    1
    14     3     4    1
    15     4     7    1
    16     7     8   am
    17     8     9    2
    18     8    11    1
    19    11    12   ar
    20    12    13   ar
    21    13    14    1
    22    13    15   ar
    23    15    16    1
    24    15    17   ar
    25    17    18   ar
    26    18    21    1
    27    21    22    1
    28     4     5    1
    29     5    23    1
    30    23    24    1
    31     5     6    1
    32    31    32    1
    33    32    33    1
    34    33    28    1
    35     6     1    1
    36    18    11   ar
    37     7    10    1
    38    16    19    1
    39    16    20    1
@<TRIPOS>MOLECULE
*****
 37 39 0 0 0
SMALL
GASTEIGER

@<TRIPOS>ATOM
      1 N         139.1704  140.3720  159.8081 N.3     1  UNL1       -0.2705
      2 C         139.1288  139.1240  160.6393 C.3     1  UNL1        0.0739
      3 C         139.0506  139.2207  162.1341 C.3     1  UNL1        0.0394
      4 C         139.0141  140.5654  162.7978 C.3     1  UNL1        0.1017
      5 C         139.0557  141.8134  161.9667 C.3     1  UNL1        0.1490
      6 C         139.1339  141.7167  160.4718 C.3     1  UNL1        0.1037
      7 N         138.9359  140.6621  164.2927 N.am    1  UNL1       -0.2999
      8 C         140.1542  141.0334  165.0850 C.2     1  UNL1        0.2488
      9 O         141.4508  141.3079  164.3825 O.2     1  UNL1       -0.2700
     10 H         138.0849  140.4820  164.7538 H       1  UNL1        0.1498
     11 C         140.0760  141.1300  166.5798 C.ar    1  UNL1        0.0882
     12 C         140.5934  142.3513  167.2805 C.ar    1  UNL1        0.0202
     13 C         140.5151  142.4480  168.7753 C.ar    1  UNL1        0.0709
     14 CL        141.0325  143.6692  169.4759 Cl      1  UNL1       -0.0810
     15 C         139.9195  141.3235  169.5695 C.ar    1  UNL1        0.0553
     16 N         139.8413  141.4201  171.0643 N.pl3   1  UNL1       -0.3563
     17 C         139.4021  140.1023  168.8688 C.ar    1  UNL1        0.0520
     18 C         139.4803  140.0055  167.3739 C.ar    1  UNL1        0.1443
     19 H         140.1808  142.2217  171.5242 H       1  UNL1        0.1424
     20 H         139.4503  140.6821  171.5855 H       1  UNL1        0.1424
     21 O         138.9629  138.7843  166.6733 O.3     1  UNL1       -0.4712
     22 C         137.5662  138.3044  166.9356 C.3     1  UNL1        0.2525
     23 O         139.0192  143.1581  162.6303 O.3     1  UNL1       -0.3505
     24 C         137.7051  143.7638  163.0259 C.3     1  UNL1        0.1741
     25 C         139.2486  140.2753  158.3133 C.3     1  UNL1        0.0722
     26 C         143.3333  136.7071  155.7475 C.2     1  UNL1        0.4049
     27 O         144.7705  137.1327  155.6896 O.2     1  UNL1       -0.2262
     28 N         142.3121  137.5991  156.3889 N.am    1  UNL1       -0.2460
     29 C         140.8750  137.1735  156.4468 C.3     1  UNL1        0.0968
     30 C         139.8538  138.0655  157.0883 C.3     1  UNL1        0.0231
     31 C         140.2698  139.3832  157.6718 C.3     1  UNL1        0.0194
     32 C         141.7069  139.8089  157.6140 C.3     1  UNL1        0.0231
     33 C         142.7281  138.9168  156.9725 C.3     1  UNL1        0.0968
     34 O         142.9173  135.3894  155.1639 O.3     1  UNL1       -0.4345
     35 C         143.1408  134.1230  155.9362 C.3     1  UNL1        0.2101
     36 C         144.5639  133.0674  157.8363 C.3     1  UNL1        0.0040
     37 C         143.6980  134.1816  157.3277 C.3     1  UNL1        0.0475
@<TRIPOS>BOND
     1    36    37    1
     2    37    35    1
     3    35    34    1
     4    34    26    1
     5    26    27    2
     6    26    28   am
     7    28    29    1
     8    29    30    1
     9    30    31    1
    10    31    25    1
    11    25     1    1
    12     1     2    1
    13     2     3    1
    14     3     4    1
    15     4     7    1
    16     7     8   am
    17     8     9    2
    18     8    11    1
    19    11    12   ar
    20    12    13   ar
    21    13    14    1
    22    13    15   ar
    23    15    16    1
    24    15    17   ar
    25    17    18   ar
    26    18    21    1
    27    21    22    1
    28     4     5    1
    29     5    23    1
    30    23    24    1
    31     5     6    1
    32    31    32    1
    33    32    33    1
    34    33    28    1
    35     6     1    1
    36    18    11   ar
    37     7    10    1
    38    16    19    1
    39    16    20    1
@<TRIPOS>MOLECULE
*****
 37 39 0 0 0
SMALL
GASTEIGER

@<TRIPOS>ATOM
      1 N         141.3762  138.0542  157.6754 N.3     1  UNL1       -0.2705
      2 C         139.9400  138.1138  158.1041 C.3     1  UNL1        0.0739
      3 C         139.5913  138.5287  159.5028 C.3     1  UNL1        0.0394
      4 C         140.6789  138.8840  160.4728 C.3     1  UNL1        0.1017
      5 C         142.1151  138.8245  160.0442 C.3     1  UNL1        0.1490
      6 C         142.4638  138.4095  158.6455 C.3     1  UNL1        0.1037
      7 N         140.3301  139.2990  161.8715 N.am    1  UNL1       -0.2999
      8 C         140.4092  138.3036  162.9908 C.2     1  UNL1        0.2488
      9 O         140.8370  136.8933  162.7115 O.2     1  UNL1       -0.2700
     10 H         140.0494  140.2246  162.0548 H       1  UNL1        0.1498
     11 C         140.0605  138.7185  164.3894 C.ar    1  UNL1        0.0882
     12 C         138.8481  138.1455  165.0616 C.ar    1  UNL1        0.0202
     13 C         138.4994  138.5604  166.4602 C.ar    1  UNL1        0.0709
     14 CL        137.2870  137.9873  167.1322 Cl      1  UNL1       -0.0810
     15 C         139.3630  139.5484  167.1867 C.ar    1  UNL1        0.0553
     16 N         139.0143  139.9634  168.5854 N.pl3   1  UNL1       -0.3563
     17 C         140.5754  140.1215  166.5147 C.ar    1  UNL1        0.0520
     18 C         140.9242  139.7066  165.1160 C.ar    1  UNL1        0.1443
     19 H         138.2186  139.5873  169.0265 H       1  UNL1        0.1424
     20 H         139.5812  140.6119  169.0622 H       1  UNL1        0.1424
     21 O         142.1365  140.2797  164.4439 O.3     1  UNL1       -0.4712
     22 C         143.5068  139.8394  164.8665 C.3     1  UNL1        0.2525
     23 O         143.2026  139.1798  161.0142 O.3     1  UNL1       -0.3505
     24 C         144.0413  138.0990  161.6295 C.3     1  UNL1        0.1741
     25 C         141.7249  137.6393  156.2768 C.3     1  UNL1        0.0722
     26 C         143.4204  131.9939  155.1568 C.2     1  UNL1        0.4049
     27 O         144.7573  131.5046  155.6291 O.2     1  UNL1       -0.2262
     28 N         142.9965  133.4052  155.4368 N.am    1  UNL1       -0.2460
     29 C         141.6595  133.8945  154.9645 C.3     1  UNL1        0.0968
     30 C         141.2357  135.3059  155.2445 C.3     1  UNL1        0.0231
     31 C         142.1487  136.2279  155.9968 C.3     1  UNL1        0.0194
     32 C         143.4857  135.7387  156.4691 C.3     1  UNL1        0.0231
     33 C         143.9096  134.3273  156.1891 C.3     1  UNL1        0.0968
     34 O         142.5073  131.0718  154.4045 O.3     1  UNL1       -0.4345
     35 C         142.0299  129.8021  155.0447 C.3     1  UNL1        0.2101
     36 C         139.5218  130.4445  154.8282 C.3     1  UNL1        0.0040
     37 C         140.5907  129.3966  154.9245 C.3     1  UNL1        0.0475
@<TRIPOS>BOND
     1    36    37    1
     2    37    35    1
     3    35    34    1
     4    34    26    1
     5    26    27    2
     6    26    28   am
     7    28    29    1
     8    29    30    1
     9    30    31    1
    10    31    25    1
    11    25     1    1
    12     1     2    1
    13     2     3    1
    14     3     4    1
    15     4     7    1
    16     7     8   am
    17     8     9    2
    18     8    11    1
    19    11    12   ar
    20    12    13   ar
    21    13    14    1
    22    13    15   ar
    23    15    16    1
    24    15    17   ar
    25    17    18   ar
    26    18    21    1
    27    21    22    1
    28     4     5    1
    29     5    23    1
    30    23    24    1
    31     5     6    1
    32    31    32    1
    33    32    33    1
    34    33    28    1
    35     6     1    1
    36    18    11   ar
    37     7    10    1
    38    16    19    1
    39    16    20    1
@<TRIPOS>MOLECULE
*****
 37 39 0 0 0
SMALL
GASTEIGER

@<TRIPOS>ATOM
      1 N         138.7634  138.9240  163.0463 N.3     1  UNL1       -0.2705
      2 C         139.2233  138.4857  161.6874 C.3     1  UNL1        0.0739
      3 C         139.0568  139.3984  160.5087 C.3     1  UNL1        0.0394
      4 C         138.4303  140.7494  160.6888 C.3     1  UNL1        0.1017
      5 C         137.9704  141.1877  162.0476 C.3     1  UNL1        0.1490
      6 C         138.1370  140.2750  163.2264 C.3     1  UNL1        0.1037
      7 N         138.2638  141.6620  159.5101 N.am    1  UNL1       -0.2999
      8 C         139.4512  142.3869  158.9492 C.2     1  UNL1        0.2488
      9 O         140.8051  142.1991  159.5669 O.2     1  UNL1       -0.2700
     10 H         137.3752  141.7853  159.1046 H       1  UNL1        0.1498
     11 C         139.2846  143.2995  157.7705 C.ar    1  UNL1        0.0882
     12 C         140.1200  144.5404  157.6587 C.ar    1  UNL1        0.0202
     13 C         139.9535  145.4530  156.4800 C.ar    1  UNL1        0.0709
     14 CL        140.7889  146.6938  156.3683 Cl      1  UNL1       -0.0810
     15 C         138.9516  145.1248  155.4131 C.ar    1  UNL1        0.0553
     16 N         138.7850  146.0374  154.2344 N.pl3   1  UNL1       -0.3563
     17 C         138.1162  143.8840  155.5248 C.ar    1  UNL1        0.0520
     18 C         138.2827  142.9713  156.7035 C.ar    1  UNL1        0.1443
     19 H         139.3333  146.8518  154.1610 H       1  UNL1        0.1424
     20 H         138.1274  145.8220  153.5341 H       1  UNL1        0.1424
     21 O         137.4473  141.7305  156.8152 O.3     1  UNL1       -0.4712
     22 C         137.8716  140.4750  156.1126 C.3     1  UNL1        0.2525
     23 O         137.3440  142.5387  162.2277 O.3     1  UNL1       -0.3505
     24 C         138.1794  143.6978  162.6845 C.3     1  UNL1        0.1741
     25 C         138.9299  138.0114  164.2249 C.3     1  UNL1        0.0722
     26 C         138.9390  140.2642  169.7859 C.2     1  UNL1        0.4049
     27 O         137.8068  139.9580  170.7210 O.2     1  UNL1       -0.2262
     28 N         138.9367  139.7010  168.3957 N.am    1  UNL1       -0.2460
     29 C         140.0689  140.0071  167.4606 C.3     1  UNL1        0.0968
     30 C         140.0666  139.4439  166.0703 C.3     1  UNL1        0.0231
     31 C         138.9322  138.5746  165.6152 C.3     1  UNL1        0.0194
     32 C         137.8000  138.2684  166.5502 C.3     1  UNL1        0.0231
     33 C         137.8023  138.8316  167.9405 C.3     1  UNL1        0.0968
     34 O         140.0735  141.1335  170.2411 O.3     1  UNL1       -0.4345
     35 C         139.9139  142.6249  170.2621 C.3     1  UNL1        0.2101
     36 C         142.4580  142.9796  169.8726 C.3     1  UNL1        0.0040
     37 C         141.0541  143.5070  169.8474 C.3     1  UNL1        0.0475
@<TRIPOS>BOND
     1    36    37    1
     2    37    35    1
     3    35    34    1
     4    34    26    1
     5    26    27    2
     6    26    28   am
     7    28    29    1
     8    29    30    1
     9    30    31    1
    10    31    25    1
    11    25     1    1
    12     1     2    1
    13     2     3    1
    14     3     4    1
    15     4     7    1
    16     7     8   am
    17     8     9    2
    18     8    11    1
    19    11    12   ar
    20    12    13   ar
    21    13    14    1
    22    13    15   ar
    23    15    16    1
    24    15    17   ar
    25    17    18   ar
    26    18    21    1
    27    21    22    1
    28     4     5    1
    29     5    23    1
    30    23    24    1
    31     5     6    1
    32    31    32    1
    33    32    33    1
    34    33    28    1
    35     6     1    1
    36    18    11   ar
    37     7    10    1
    38    16    19    1
    39    16    20    1
@<TRIPOS>MOLECULE
*****
 37 39 0 0 0
SMALL
GASTEIGER

@<TRIPOS>ATOM
      1 N         140.0473  139.6929  160.7325 N.3     1  UNL1       -0.2705
      2 C         140.2882  138.6956  161.8267 C.3     1  UNL1        0.0739
      3 C         140.8096  139.1528  163.1568 C.3     1  UNL1        0.0394
      4 C         141.0902  140.6073  163.3926 C.3     1  UNL1        0.1017
      5 C         140.8494  141.6047  162.2984 C.3     1  UNL1        0.1490
      6 C         140.3279  141.1475  160.9683 C.3     1  UNL1        0.1037
      7 N         141.6117  141.0645  164.7227 N.am    1  UNL1       -0.2999
      8 C         140.6553  141.3923  165.8308 C.2     1  UNL1        0.2488
      9 O         139.1774  141.2628  165.6089 O.2     1  UNL1       -0.2700
     10 H         142.5816  141.1495  164.8684 H       1  UNL1        0.1498
     11 C         141.1767  141.8494  167.1609 C.ar    1  UNL1        0.0882
     12 C         140.4132  142.8662  167.9566 C.ar    1  UNL1        0.0202
     13 C         140.9346  143.3234  169.2866 C.ar    1  UNL1        0.0709
     14 CL        140.1710  144.3401  170.0823 Cl      1  UNL1       -0.0810
     15 C         142.2197  142.7638  169.8210 C.ar    1  UNL1        0.0553
     16 N         142.7411  143.2210  171.1510 N.pl3   1  UNL1       -0.3563
     17 C         142.9832  141.7471  169.0253 C.ar    1  UNL1        0.0520
     18 C         142.4618  141.2898  167.6952 C.ar    1  UNL1        0.1443
     19 H         142.2400  143.8883  171.6733 H       1  UNL1        0.1424
     20 H         143.5845  142.8537  171.5017 H       1  UNL1        0.1424
     21 O         143.2254  140.2731  166.8996 O.3     1  UNL1       -0.4712
     22 C         143.0827  138.8134  167.2140 C.3     1  UNL1        0.2525
     23 O         141.1300  143.0592  162.5343 O.3     1  UNL1       -0.3505
     24 C         140.0582  143.9492  163.0905 C.3     1  UNL1        0.1741
     25 C         139.5259  139.2357  159.4024 C.3     1  UNL1        0.0722
     26 C         143.2394  136.6832  155.4407 C.2     1  UNL1        0.4049
     27 O         144.7184  136.9099  155.5452 O.2     1  UNL1       -0.2262
     28 N         142.3110  137.3214  156.4311 N.am    1  UNL1       -0.2460
     29 C         140.8319  137.0947  156.3267 C.3     1  UNL1        0.0968
     30 C         139.9036  137.7328  157.3171 C.3     1  UNL1        0.0231
     31 C         140.4543  138.5976  158.4120 C.3     1  UNL1        0.0194
     32 C         141.9333  138.8243  158.5164 C.3     1  UNL1        0.0231
     33 C         142.8617  138.1862  157.5260 C.3     1  UNL1        0.0968
     34 O         142.6887  135.8184  154.3458 O.3     1  UNL1       -0.4345
     35 C         142.7371  134.3247  154.4738 C.3     1  UNL1        0.2101
     36 C         141.2010  132.3812  155.2570 C.3     1  UNL1        0.0040
     37 C         141.9601  133.6393  155.5585 C.3     1  UNL1        0.0475
@<TRIPOS>BOND
     1    36    37    1
     2    37    35    1
     3    35    34    1
     4    34    26    1
     5    26    27    2
     6    26    28   am
     7    28    29    1
     8    29    30    1
     9    30    31    1
    10    31    25    1
    11    25     1    1
    12     1     2    1
    13     2     3    1
    14     3     4    1
    15     4     7    1
    16     7     8   am
    17     8     9    2
    18     8    11    1
    19    11    12   ar
    20    12    13   ar
    21    13    14    1
    22    13    15   ar
    23    15    16    1
    24    15    17   ar
    25    17    18   ar
    26    18    21    1
    27    21    22    1
    28     4     5    1
    29     5    23    1
    30    23    24    1
    31     5     6    1
    32    31    32    1
    33    32    33    1
    34    33    28    1
    35     6     1    1
    36    18    11   ar
    37     7    10    1
    38    16    19    1
    39    16    20    1
@<TRIPOS>MOLECULE
*****
 37 39 0 0 0
SMALL
GASTEIGER

@<TRIPOS>ATOM
      1 N         140.6379  142.7616  160.3912 N.3     1  UNL1       -0.2705
      2 C         139.8755  143.3928  161.5184 C.3     1  UNL1        0.0739
      3 C         140.0849  142.9160  162.9251 C.3     1  UNL1        0.0394
      4 C         141.0567  141.8081  163.2047 C.3     1  UNL1        0.1017
      5 C         141.8190  141.1769  162.0776 C.3     1  UNL1        0.1490
      6 C         141.6096  141.6536  160.6708 C.3     1  UNL1        0.1037
      7 N         141.2660  141.3313  164.6115 N.am    1  UNL1       -0.2999
      8 C         142.3798  141.9015  165.4387 C.2     1  UNL1        0.2488
      9 O         143.2843  142.9485  164.8592 O.2     1  UNL1       -0.2700
     10 H         140.6724  140.6441  164.9918 H       1  UNL1        0.1498
     11 C         142.5891  141.4248  166.8454 C.ar    1  UNL1        0.0882
     12 C         143.0600  142.3824  167.8996 C.ar    1  UNL1        0.0202
     13 C         143.2693  141.9056  169.3063 C.ar    1  UNL1        0.0709
     14 CL        143.7401  142.8632  170.3605 Cl      1  UNL1       -0.0810
     15 C         143.0078  140.4713  169.6589 C.ar    1  UNL1        0.0553
     16 N         143.2171  139.9945  171.0656 N.pl3   1  UNL1       -0.3563
     17 C         142.5369  139.5137  168.6047 C.ar    1  UNL1        0.0520
     18 C         142.3276  139.9904  167.1979 C.ar    1  UNL1        0.1443
     19 H         143.5261  140.6230  171.7575 H       1  UNL1        0.1424
     20 H         143.0454  139.0531  171.2969 H       1  UNL1        0.1424
     21 O         141.8567  139.0329  166.1438 O.3     1  UNL1       -0.4712
     22 C         142.8479  138.1804  165.4083 C.3     1  UNL1        0.2525
     23 O         142.7907  140.0689  162.3572 O.3     1  UNL1       -0.3505
     24 C         144.2641  140.3501  162.3747 C.3     1  UNL1        0.1741
     25 C         140.4285  143.2383  158.9845 C.3     1  UNL1        0.0722
     26 C         135.7933  141.1807  155.7781 C.2     1  UNL1        0.4049
     27 O         135.2904  141.9618  154.6005 O.2     1  UNL1       -0.2262
     28 N         136.9521  141.6951  156.5797 N.am    1  UNL1       -0.2460
     29 C         137.4550  140.9140  157.7574 C.3     1  UNL1        0.0968
     30 C         138.6138  141.4284  158.5590 C.3     1  UNL1        0.0231
     31 C         139.2697  142.7239  158.1829 C.3     1  UNL1        0.0194
     32 C         138.7668  143.5050  157.0053 C.3     1  UNL1        0.0231
     33 C         137.6080  142.9906  156.2037 C.3     1  UNL1        0.0968
     34 O         135.1374  139.8852  156.1542 O.3     1  UNL1       -0.4345
     35 C         133.6426  139.7649  156.1240 C.3     1  UNL1        0.2101
     36 C         131.5344  138.3475  156.6688 C.3     1  UNL1        0.0040
     37 C         132.9569  138.7244  156.9591 C.3     1  UNL1        0.0475
@<TRIPOS>BOND
     1    36    37    1
     2    37    35    1
     3    35    34    1
     4    34    26    1
     5    26    27    2
     6    26    28   am
     7    28    29    1
     8    29    30    1
     9    30    31    1
    10    31    25    1
    11    25     1    1
    12     1     2    1
    13     2     3    1
    14     3     4    1
    15     4     7    1
    16     7     8   am
    17     8     9    2
    18     8    11    1
    19    11    12   ar
    20    12    13   ar
    21    13    14    1
    22    13    15   ar
    23    15    16    1
    24    15    17   ar
    25    17    18   ar
    26    18    21    1
    27    21    22    1
    28     4     5    1
    29     5    23    1
    30    23    24    1
    31     5     6    1
    32    31    32    1
    33    32    33    1
    34    33    28    1
    35     6     1    1
    36    18    11   ar
    37     7    10    1
    38    16    19    1
    39    16    20    1
@<TRIPOS>MOLECULE
*****
 37 39 0 0 0
SMALL
GASTEIGER

@<TRIPOS>ATOM
      1 N         140.8154  140.2777  159.6734 N.3     1  UNL1       -0.2705
      2 C         139.9005  139.6975  160.7109 C.3     1  UNL1        0.0739
      3 C         140.1240  140.0020  162.1626 C.3     1  UNL1        0.0394
      4 C         141.2623  140.8866  162.5768 C.3     1  UNL1        0.1017
      5 C         142.1772  141.4668  161.5394 C.3     1  UNL1        0.1490
      6 C         141.9538  141.1624  160.0876 C.3     1  UNL1        0.1037
      7 N         141.4857  141.1911  164.0285 N.am    1  UNL1       -0.2999
      8 C         142.3367  140.2808  164.8634 C.2     1  UNL1        0.2488
      9 O         142.9644  139.0660  164.2466 O.2     1  UNL1       -0.2700
     10 H         141.0738  141.9884  164.4334 H       1  UNL1        0.1498
     11 C         142.5601  140.5852  166.3151 C.ar    1  UNL1        0.0882
     12 C         142.4040  139.5023  167.3412 C.ar    1  UNL1        0.0202
     13 C         142.6273  139.8067  168.7929 C.ar    1  UNL1        0.0709
     14 CL        142.4712  138.7238  169.8190 Cl      1  UNL1       -0.0810
     15 C         143.0069  141.1941  169.2185 C.ar    1  UNL1        0.0553
     16 N         143.2302  141.4986  170.6701 N.pl3   1  UNL1       -0.3563
     17 C         143.1630  142.2771  168.1924 C.ar    1  UNL1        0.0520
     18 C         142.9396  141.9726  166.7407 C.ar    1  UNL1        0.1443
     19 H         143.1278  140.7878  171.3436 H       1  UNL1        0.1424
     20 H         143.4793  142.4092  170.9495 H       1  UNL1        0.1424
     21 O         143.0957  143.0555  165.7146 O.3     1  UNL1       -0.4712
     22 C         144.4624  143.5636  165.3623 C.3     1  UNL1        0.2525
     23 O         143.3155  142.3515  161.9536 O.3     1  UNL1       -0.3505
     24 C         144.6954  141.7808  162.0963 C.3     1  UNL1        0.1741
     25 C         140.5920  139.9733  158.2218 C.3     1  UNL1        0.0722
     26 C         142.3423  134.6994  155.9585 C.2     1  UNL1        0.4049
     27 O         141.4321  133.9376  155.0413 O.2     1  UNL1       -0.2262
     28 N         141.9047  136.0178  156.5243 N.am    1  UNL1       -0.2460
     29 C         142.8149  136.7795  157.4415 C.3     1  UNL1        0.0968
     30 C         142.3773  138.0980  158.0073 C.3     1  UNL1        0.0231
     31 C         141.0296  138.6548  157.6559 C.3     1  UNL1        0.0194
     32 C         140.1194  137.8931  156.7387 C.3     1  UNL1        0.0231
     33 C         140.5570  136.5746  156.1729 C.3     1  UNL1        0.0968
     34 O         143.6900  134.1426  156.3099 O.3     1  UNL1       -0.4345
     35 C         144.0989  132.7915  155.8025 C.3     1  UNL1        0.2101
     36 C         145.4170  132.3010  157.9871 C.3     1  UNL1        0.0040
     37 C         144.7704  131.8162  156.7234 C.3     1  UNL1        0.0475
@<TRIPOS>BOND
     1    36    37    1
     2    37    35    1
     3    35    34    1
     4    34    26    1
     5    26    27    2
     6    26    28   am
     7    28    29    1
     8    29    30    1
     9    30    31    1
    10    31    25    1
    11    25     1    1
    12     1     2    1
    13     2     3    1
    14     3     4    1
    15     4     7    1
    16     7     8   am
    17     8     9    2
    18     8    11    1
    19    11    12   ar
    20    12    13   ar
    21    13    14    1
    22    13    15   ar
    23    15    16    1
    24    15    17   ar
    25    17    18   ar
    26    18    21    1
    27    21    22    1
    28     4     5    1
    29     5    23    1
    30    23    24    1
    31     5     6    1
    32    31    32    1
    33    32    33    1
    34    33    28    1
    35     6     1    1
    36    18    11   ar
    37     7    10    1
    38    16    19    1
    39    16    20    1
@<TRIPOS>MOLECULE
*****
 37 39 0 0 0
SMALL
GASTEIGER

@<TRIPOS>ATOM
      1 N         140.9074  140.4970  160.0915 N.3     1  UNL1       -0.2705
      2 C         140.1309  139.4270  160.8003 C.3     1  UNL1        0.0739
      3 C         139.9311  139.5040  162.2849 C.3     1  UNL1        0.0394
      4 C         140.5078  140.6509  163.0608 C.3     1  UNL1        0.1017
      5 C         141.2842  141.7209  162.3521 C.3     1  UNL1        0.1490
      6 C         141.4840  141.6439  160.8674 C.3     1  UNL1        0.1037
      7 N         140.3079  140.7278  164.5455 N.am    1  UNL1       -0.2999
      8 C         141.2666  140.0354  165.4682 C.2     1  UNL1        0.2488
      9 O         142.4252  139.2660  164.9062 O.2     1  UNL1       -0.2700
     10 H         139.5475  141.2328  164.9143 H       1  UNL1        0.1498
     11 C         141.0668  140.1124  166.9528 C.ar    1  UNL1        0.0882
     12 C         142.2377  140.3676  167.8550 C.ar    1  UNL1        0.0202
     13 C         142.0378  140.4445  169.3396 C.ar    1  UNL1        0.0709
     14 CL        143.2087  140.6997  170.2417 Cl      1  UNL1       -0.0810
     15 C         140.6671  140.2663  169.9221 C.ar    1  UNL1        0.0553
     16 N         140.4672  140.3432  171.4067 N.pl3   1  UNL1       -0.3563
     17 C         139.4962  140.0110  169.0199 C.ar    1  UNL1        0.0520
     18 C         139.6960  139.9341  167.5352 C.ar    1  UNL1        0.1443
     19 H         141.2357  140.5107  171.9988 H       1  UNL1        0.1424
     20 H         139.5675  140.2262  171.7889 H       1  UNL1        0.1424
     21 O         138.5251  139.6789  166.6331 O.3     1  UNL1       -0.4712
     22 C         137.7207  138.4221  166.7857 C.3     1  UNL1        0.2525
     23 O         141.8609  142.8678  163.1281 O.3     1  UNL1       -0.3505
     24 C         143.2366  142.7592  163.7160 C.3     1  UNL1        0.1741
     25 C         141.1072  140.4201  158.6069 C.3     1  UNL1        0.0722
     26 C         142.0857  135.1139  155.9825 C.2     1  UNL1        0.4049
     27 O         141.0025  134.4675  155.1710 O.2     1  UNL1       -0.2262
     28 N         141.8411  136.4405  156.6386 N.am    1  UNL1       -0.2460
     29 C         142.9243  137.0869  157.4502 C.3     1  UNL1        0.0968
     30 C         142.6797  138.4134  158.1063 C.3     1  UNL1        0.0231
     31 C         141.3518  139.0935  157.9508 C.3     1  UNL1        0.0194
     32 C         140.2686  138.4471  157.1392 C.3     1  UNL1        0.0231
     33 C         140.5133  137.1206  156.4831 C.3     1  UNL1        0.0968
     34 O         143.4136  134.4338  156.1381 O.3     1  UNL1       -0.4345
     35 C         143.4991  132.9369  156.0955 C.3     1  UNL1        0.2101
     36 C         145.2505  132.1630  157.8516 C.3     1  UNL1        0.0040
     37 C         144.7908  132.2497  156.4264 C.3     1  UNL1        0.0475
@<TRIPOS>BOND
     1    36    37    1
     2    37    35    1
     3    35    34    1
     4    34    26    1
     5    26    27    2
     6    26    28   am
     7    28    29    1
     8    29    30    1
     9    30    31    1
    10    31    25    1
    11    25     1    1
    12     1     2    1
    13     2     3    1
    14     3     4    1
    15     4     7    1
    16     7     8   am
    17     8     9    2
    18     8    11    1
    19    11    12   ar
    20    12    13   ar
    21    13    14    1
    22    13    15   ar
    23    15    16    1
    24    15    17   ar
    25    17    18   ar
    26    18    21    1
    27    21    22    1
    28     4     5    1
    29     5    23    1
    30    23    24    1
    31     5     6    1
    32    31    32    1
    33    32    33    1
    34    33    28    1
    35     6     1    1
    36    18    11   ar
    37     7    10    1
    38    16    19    1
    39    16    20    1
@<TRIPOS>MOLECULE
*****
 37 39 0 0 0
SMALL
GASTEIGER

@<TRIPOS>ATOM
      1 N         140.2229  139.2057  159.8129 N.3     1  UNL1       -0.2705
      2 C         139.3123  138.3824  160.6750 C.3     1  UNL1        0.0739
      3 C         139.5402  138.3144  162.1560 C.3     1  UNL1        0.0394
      4 C         140.6787  139.0698  162.7750 C.3     1  UNL1        0.1017
      5 C         141.5893  139.8931  161.9131 C.3     1  UNL1        0.1490
      6 C         141.3614  139.9610  160.4320 C.3     1  UNL1        0.1037
      7 N         140.9066  139.0018  164.2561 N.am    1  UNL1       -0.2999
      8 C         140.4075  140.1036  165.1431 C.2     1  UNL1        0.2488
      9 O         139.6804  141.2734  164.5491 O.2     1  UNL1       -0.2700
     10 H         141.3838  138.2340  164.6460 H       1  UNL1        0.1498
     11 C         140.6354  140.0356  166.6241 C.ar    1  UNL1        0.0882
     12 C         139.4838  140.2116  167.5690 C.ar    1  UNL1        0.0202
     13 C         139.7117  140.1435  169.0500 C.ar    1  UNL1        0.0709
     14 CL        138.5601  140.3195  169.9949 Cl      1  UNL1       -0.0810
     15 C         141.0912  139.8995  169.5861 C.ar    1  UNL1        0.0553
     16 N         141.3191  139.8315  171.0671 N.pl3   1  UNL1       -0.3563
     17 C         142.2428  139.7236  168.6413 C.ar    1  UNL1        0.0520
     18 C         142.0149  139.7916  167.1602 C.ar    1  UNL1        0.1443
     19 H         140.5633  139.9470  171.6873 H       1  UNL1        0.1424
     20 H         142.2245  139.6714  171.4190 H       1  UNL1        0.1424
     21 O         143.1665  139.6156  166.2153 O.3     1  UNL1       -0.4712
     22 C         143.8630  138.2905  166.1204 C.3     1  UNL1        0.2525
     23 O         142.7278  140.6484  162.5322 O.3     1  UNL1       -0.3505
     24 C         144.1066  140.0574  162.5350 C.3     1  UNL1        0.1741
     25 C         139.9950  139.2737  158.3320 C.3     1  UNL1        0.0722
     26 C         141.9919  134.8664  154.7839 C.2     1  UNL1        0.4049
     27 O         141.0992  134.2957  153.7222 O.2     1  UNL1       -0.2262
     28 N         141.4927  135.9682  155.6709 N.am    1  UNL1       -0.2460
     29 C         142.3853  136.5390  156.7326 C.3     1  UNL1        0.0968
     30 C         141.8861  137.6408  157.6197 C.3     1  UNL1        0.0231
     31 C         140.4942  138.1719  157.4449 C.3     1  UNL1        0.0194
     32 C         139.6016  137.6011  156.3832 C.3     1  UNL1        0.0231
     33 C         140.1008  136.4993  155.4962 C.3     1  UNL1        0.0968
     34 O         143.3838  134.3354  154.9586 O.3     1  UNL1       -0.4345
     35 C         143.6705  133.3187  156.0236 C.3     1  UNL1        0.2101
     36 C         142.5547  130.9879  155.7540 C.3     1  UNL1        0.0040
     37 C         142.6143  132.3303  156.4207 C.3     1  UNL1        0.0475
@<TRIPOS>BOND
     1    36    37    1
     2    37    35    1
     3    35    34    1
     4    34    26    1
     5    26    27    2
     6    26    28   am
     7    28    29    1
     8    29    30    1
     9    30    31    1
    10    31    25    1
    11    25     1    1
    12     1     2    1
    13     2     3    1
    14     3     4    1
    15     4     7    1
    16     7     8   am
    17     8     9    2
    18     8    11    1
    19    11    12   ar
    20    12    13   ar
    21    13    14    1
    22    13    15   ar
    23    15    16    1
    24    15    17   ar
    25    17    18   ar
    26    18    21    1
    27    21    22    1
    28     4     5    1
    29     5    23    1
    30    23    24    1
    31     5     6    1
    32    31    32    1
    33    32    33    1
    34    33    28    1
    35     6     1    1
    36    18    11   ar
    37     7    10    1
    38    16    19    1
    39    16    20    1
