@<TRIPOS>MOLECULE
*****
 25 27 0 0 0
SMALL
GASTEIGER

@<TRIPOS>ATOM
      1 C         138.6189  139.3932  165.9269 C.3     1  UNL1        0.0769
      2 C         138.9393  138.1030  165.2322 C.3     1  UNL1        0.0092
      3 C         139.0625  138.0663  163.7377 C.3     1  UNL1        0.0044
      4 C         138.8654  139.3199  162.9380 C.3     1  UNL1        0.0457
      5 C         138.5450  140.6101  163.6327 C.3     1  UNL1        0.0044
      6 C         138.4218  140.6467  165.1272 C.3     1  UNL1        0.0092
      7 C         140.1352  141.2865  170.5222 C.3     1  UNL1        0.0950
      8 C         139.2538  140.3764  169.7190 C.2     1  UNL1        0.2286
      9 O         138.2492  139.5030  170.4104 O.2     1  UNL1       -0.2747
     10 N         139.3770  140.3398  168.2245 N.am    1  UNL1       -0.2553
     11 C         138.4957  139.4298  167.4214 C.2     1  UNL1        0.2276
     12 O         137.4911  138.5564  168.1127 O.2     1  UNL1       -0.2747
     13 H         140.0364  140.9130  167.7708 H       1  UNL1        0.1575
     14 C         138.9886  139.2833  161.4435 C.3     1  UNL1        0.2049
     15 N         138.1389  140.0448  160.4698 N.2     1  UNL1       -0.2450
     16 C         138.6083  139.7109  159.0848 C.2     1  UNL1        0.1140
     17 C         139.7482  138.7430  159.2025 C.2     1  UNL1        0.0968
     18 N         139.9832  138.4787  160.6603 N.2     1  UNL1       -0.2465
     19 C         140.5179  138.1444  158.0627 C.ar    1  UNL1        0.0193
     20 C         142.0015  137.9544  158.1773 C.ar    1  UNL1        0.0016
     21 C         142.7711  137.3559  157.0374 C.ar    1  UNL1        0.0006
     22 C         142.0573  136.9474  155.7830 C.ar    1  UNL1        0.0067
     23 C         140.5739  137.1374  155.6684 C.ar    1  UNL1        0.0346
     24 BR        139.8600  136.7288  154.4139 Br      1  UNL1       -0.0490
     25 C         139.8041  137.7359  156.8083 C.ar    1  UNL1        0.0082
@<TRIPOS>BOND
     1     7     8    1
     2     8     9    2
     3     8    10   am
     4    10    11   am
     5    11    12    2
     6    11     1    1
     7     1     2    1
     8     2     3    1
     9     3     4    1
    10     4    14    1
    11    14    15    1
    12    15    16    2
    13    16    17    1
    14    17    19    1
    15    19    20   ar
    16    20    21   ar
    17    21    22   ar
    18    22    23   ar
    19    23    24    1
    20    23    25   ar
    21    17    18    2
    22     4     5    1
    23     5     6    1
    24     6     1    1
    25    18    14    1
    26    25    19   ar
    27    10    13    1
@<TRIPOS>MOLECULE
*****
 25 27 0 0 0
SMALL
GASTEIGER

@<TRIPOS>ATOM
      1 C         142.2797  138.1022  159.4486 C.3     1  UNL1        0.0769
      2 C         143.0041  137.7807  160.7220 C.3     1  UNL1        0.0092
      3 C         142.3379  138.0191  162.0446 C.3     1  UNL1        0.0044
      4 C         140.9472  138.5790  162.0938 C.3     1  UNL1        0.0457
      5 C         140.2228  138.9004  160.8204 C.3     1  UNL1        0.0044
      6 C         140.8890  138.6620  159.4977 C.3     1  UNL1        0.0092
      7 C         143.4329  134.9302  155.4977 C.3     1  UNL1        0.0950
      8 C         143.5225  136.2778  156.1505 C.2     1  UNL1        0.2286
      9 O         144.2783  137.3869  155.4807 O.2     1  UNL1       -0.2747
     10 N         142.8563  136.5163  157.4732 N.am    1  UNL1       -0.2553
     11 C         142.9459  137.8637  158.1260 C.2     1  UNL1        0.2276
     12 O         143.7016  138.9728  157.4561 O.2     1  UNL1       -0.2747
     13 H         142.3602  135.7883  157.9128 H       1  UNL1        0.1575
     14 C         140.2810  138.8174  163.4164 C.3     1  UNL1        0.2049
     15 N         138.8733  138.4433  163.7748 N.2     1  UNL1       -0.2450
     16 C         138.6278  138.8665  165.1927 C.2     1  UNL1        0.1140
     17 C         139.8838  139.5021  165.7108 C.2     1  UNL1        0.0968
     18 N         140.9055  139.4718  164.6130 N.2     1  UNL1       -0.2465
     19 C         140.0831  140.0687  167.0853 C.ar    1  UNL1        0.0193
     20 C         139.0645  139.8139  168.1565 C.ar    1  UNL1        0.0016
     21 C         139.2639  140.3804  169.5310 C.ar    1  UNL1        0.0006
     22 C         140.4818  141.2018  169.8343 C.ar    1  UNL1        0.0067
     23 C         141.5004  141.4565  168.7631 C.ar    1  UNL1        0.0346
     24 BR        142.7185  142.2779  169.0664 Br      1  UNL1       -0.0490
     25 C         141.3011  140.8900  167.3886 C.ar    1  UNL1        0.0082
@<TRIPOS>BOND
     1     7     8    1
     2     8     9    2
     3     8    10   am
     4    10    11   am
     5    11    12    2
     6    11     1    1
     7     1     2    1
     8     2     3    1
     9     3     4    1
    10     4    14    1
    11    14    15    1
    12    15    16    2
    13    16    17    1
    14    17    19    1
    15    19    20   ar
    16    20    21   ar
    17    21    22   ar
    18    22    23   ar
    19    23    24    1
    20    23    25   ar
    21    17    18    2
    22     4     5    1
    23     5     6    1
    24     6     1    1
    25    18    14    1
    26    25    19   ar
    27    10    13    1
@<TRIPOS>MOLECULE
*****
 25 27 0 0 0
SMALL
GASTEIGER

@<TRIPOS>ATOM
      1 C         140.8151  144.9538  158.7351 C.3     1  UNL1        0.0769
      2 C         140.2927  145.4846  160.0371 C.3     1  UNL1        0.0092
      3 C         140.9351  145.0705  161.3277 C.3     1  UNL1        0.0044
      4 C         142.1000  144.1256  161.3164 C.3     1  UNL1        0.0457
      5 C         142.6224  143.5948  160.0144 C.3     1  UNL1        0.0044
      6 C         141.9800  144.0089  158.7237 C.3     1  UNL1        0.0092
      7 C         138.8116  148.6576  155.6908 C.3     1  UNL1        0.0950
      8 C         139.1709  147.2197  155.9223 C.2     1  UNL1        0.2286
      9 O         138.8877  146.1960  154.8631 O.2     1  UNL1       -0.2747
     10 N         139.8133  146.8056  157.2129 N.am    1  UNL1       -0.2553
     11 C         140.1726  145.3679  157.4444 C.2     1  UNL1        0.2276
     12 O         139.8894  144.3442  156.3853 O.2     1  UNL1       -0.2747
     13 H         139.9992  147.4776  157.9080 H       1  UNL1        0.1575
     14 C         142.7425  143.7115  162.6070 C.3     1  UNL1        0.2049
     15 N         144.0763  144.1722  163.1156 N.2     1  UNL1       -0.2450
     16 C         144.3221  143.5095  164.4386 C.2     1  UNL1        0.1140
     17 C         143.1402  142.6391  164.7477 C.2     1  UNL1        0.0968
     18 N         142.1639  142.7640  163.6157 N.2     1  UNL1       -0.2465
     19 C         142.9652  141.7926  165.9736 C.ar    1  UNL1        0.0193
     20 C         142.6470  140.3330  165.8379 C.ar    1  UNL1        0.0016
     21 C         142.4720  139.4865  167.0638 C.ar    1  UNL1        0.0006
     22 C         142.6152  140.0996  168.4252 C.ar    1  UNL1        0.0067
     23 C         142.9334  141.5591  168.5609 C.ar    1  UNL1        0.0346
     24 BR        143.0766  142.1722  169.9225 Br      1  UNL1       -0.0490
     25 C         143.1084  142.4056  167.3350 C.ar    1  UNL1        0.0082
@<TRIPOS>BOND
     1     7     8    1
     2     8     9    2
     3     8    10   am
     4    10    11   am
     5    11    12    2
     6    11     1    1
     7     1     2    1
     8     2     3    1
     9     3     4    1
    10     4    14    1
    11    14    15    1
    12    15    16    2
    13    16    17    1
    14    17    19    1
    15    19    20   ar
    16    20    21   ar
    17    21    22   ar
    18    22    23   ar
    19    23    24    1
    20    23    25   ar
    21    17    18    2
    22     4     5    1
    23     5     6    1
    24     6     1    1
    25    18    14    1
    26    25    19   ar
    27    10    13    1
@<TRIPOS>MOLECULE
*****
 25 27 0 0 0
SMALL
GASTEIGER

@<TRIPOS>ATOM
      1 C         143.1498  138.6067  165.5460 C.3     1  UNL1        0.0769
      2 C         141.9532  138.0772  164.8128 C.3     1  UNL1        0.0092
      3 C         141.9102  138.1248  163.3142 C.3     1  UNL1        0.0044
      4 C         143.0638  138.7020  162.5487 C.3     1  UNL1        0.0457
      5 C         144.2605  139.2315  163.2819 C.3     1  UNL1        0.0044
      6 C         144.3034  139.1838  164.7806 C.3     1  UNL1        0.0092
      7 C         141.5851  140.4307  170.1530 C.3     1  UNL1        0.0950
      8 C         142.4105  139.4710  169.3481 C.2     1  UNL1        0.2286
      9 O         143.2788  138.4636  170.0419 O.2     1  UNL1       -0.2747
     10 N         142.3675  139.5186  167.8495 N.am    1  UNL1       -0.2553
     11 C         143.1928  138.5590  167.0446 C.2     1  UNL1        0.2276
     12 O         144.0611  137.5517  167.7383 O.2     1  UNL1       -0.2747
     13 H         141.7976  140.1798  167.3942 H       1  UNL1        0.1575
     14 C         143.0208  138.7497  161.0501 C.3     1  UNL1        0.2049
     15 N         143.6058  139.8265  160.1851 N.2     1  UNL1       -0.2450
     16 C         143.3318  139.4712  158.7537 C.2     1  UNL1        0.1140
     17 C         142.5775  138.1749  158.7341 C.2     1  UNL1        0.0968
     18 N         142.3853  137.7289  160.1534 N.2     1  UNL1       -0.2465
     19 C         142.0993  137.4514  157.5102 C.ar    1  UNL1        0.0193
     20 C         140.8585  137.9114  156.8039 C.ar    1  UNL1        0.0016
     21 C         140.3804  137.1880  155.5800 C.ar    1  UNL1        0.0006
     22 C         141.1430  136.0045  155.0625 C.ar    1  UNL1        0.0067
     23 C         142.3837  135.5445  155.7688 C.ar    1  UNL1        0.0346
     24 BR        143.1463  134.3610  155.2512 Br      1  UNL1       -0.0490
     25 C         142.8619  136.2680  156.9927 C.ar    1  UNL1        0.0082
@<TRIPOS>BOND
     1     7     8    1
     2     8     9    2
     3     8    10   am
     4    10    11   am
     5    11    12    2
     6    11     1    1
     7     1     2    1
     8     2     3    1
     9     3     4    1
    10     4    14    1
    11    14    15    1
    12    15    16    2
    13    16    17    1
    14    17    19    1
    15    19    20   ar
    16    20    21   ar
    17    21    22   ar
    18    22    23   ar
    19    23    24    1
    20    23    25   ar
    21    17    18    2
    22     4     5    1
    23     5     6    1
    24     6     1    1
    25    18    14    1
    26    25    19   ar
    27    10    13    1
@<TRIPOS>MOLECULE
*****
 25 27 0 0 0
SMALL
GASTEIGER

@<TRIPOS>ATOM
      1 C         139.3021  140.0667  166.3997 C.3     1  UNL1        0.0769
      2 C         138.7930  138.9271  165.5678 C.3     1  UNL1        0.0092
      3 C         138.5347  139.1242  164.1034 C.3     1  UNL1        0.0044
      4 C         138.7854  140.4609  163.4709 C.3     1  UNL1        0.0457
      5 C         139.2945  141.6006  164.3027 C.3     1  UNL1        0.0044
      6 C         139.5528  141.4035  165.7671 C.3     1  UNL1        0.0092
      7 C         142.5846  140.0488  170.4277 C.3     1  UNL1        0.0950
      8 C         141.2016  139.8606  169.8781 C.2     1  UNL1        0.2286
      9 O         140.0770  139.4754  170.7928 O.2     1  UNL1       -0.2747
     10 N         140.9433  140.0577  168.4137 N.am    1  UNL1       -0.2553
     11 C         139.5604  139.8696  167.8640 C.2     1  UNL1        0.2276
     12 O         138.4358  139.4843  168.7788 O.2     1  UNL1       -0.2747
     13 H         141.6814  140.3106  167.8133 H       1  UNL1        0.1575
     14 C         138.5271  140.6580  162.0065 C.3     1  UNL1        0.2049
     15 N         137.8009  139.7058  161.1033 N.2     1  UNL1       -0.2450
     16 C         137.7746  140.3012  159.7268 C.2     1  UNL1        0.1140
     17 C         138.4846  141.6215  159.7793 C.2     1  UNL1        0.0968
     18 N         138.9496  141.8420  161.1882 N.2     1  UNL1       -0.2465
     19 C         138.6929  142.5571  158.6254 C.ar    1  UNL1        0.0193
     20 C         137.8367  142.4383  157.3995 C.ar    1  UNL1        0.0016
     21 C         138.0451  143.3739  156.2458 C.ar    1  UNL1        0.0006
     22 C         139.1096  144.4281  156.3178 C.ar    1  UNL1        0.0067
     23 C         139.9657  144.5469  157.5437 C.ar    1  UNL1        0.0346
     24 BR        141.0304  145.6013  157.6158 Br      1  UNL1       -0.0490
     25 C         139.7574  143.6114  158.6975 C.ar    1  UNL1        0.0082
@<TRIPOS>BOND
     1     7     8    1
     2     8     9    2
     3     8    10   am
     4    10    11   am
     5    11    12    2
     6    11     1    1
     7     1     2    1
     8     2     3    1
     9     3     4    1
    10     4    14    1
    11    14    15    1
    12    15    16    2
    13    16    17    1
    14    17    19    1
    15    19    20   ar
    16    20    21   ar
    17    21    22   ar
    18    22    23   ar
    19    23    24    1
    20    23    25   ar
    21    17    18    2
    22     4     5    1
    23     5     6    1
    24     6     1    1
    25    18    14    1
    26    25    19   ar
    27    10    13    1
@<TRIPOS>MOLECULE
*****
 25 27 0 0 0
SMALL
GASTEIGER

@<TRIPOS>ATOM
      1 C         139.5120  140.4838  167.3905 C.3     1  UNL1        0.0769
      2 C         140.0119  141.5216  166.4298 C.3     1  UNL1        0.0092
      3 C         139.6786  141.4158  164.9711 C.3     1  UNL1        0.0044
      4 C         138.8454  140.2722  164.4732 C.3     1  UNL1        0.0457
      5 C         138.3454  139.2345  165.4339 C.3     1  UNL1        0.0044
      6 C         138.6788  139.3403  166.8926 C.3     1  UNL1        0.0092
      7 C         142.4028  142.4944  171.2116 C.3     1  UNL1        0.0950
      8 C         141.2907  141.5949  170.7597 C.2     1  UNL1        0.2286
      9 O         140.5119  140.8012  171.7665 O.2     1  UNL1       -0.2747
     10 N         140.9574  141.4891  169.3011 N.am    1  UNL1       -0.2553
     11 C         139.8453  140.5896  168.8492 C.2     1  UNL1        0.2276
     12 O         139.0665  139.7960  169.8559 O.2     1  UNL1       -0.2747
     13 H         141.4685  142.0100  168.6403 H       1  UNL1        0.1575
     14 C         138.5121  140.1664  163.0145 C.3     1  UNL1        0.2049
     15 N         137.8080  139.0196  162.3519 N.2     1  UNL1       -0.2450
     16 C         137.6851  139.3332  160.8902 C.2     1  UNL1        0.1140
     17 C         138.3132  140.6740  160.6494 C.2     1  UNL1        0.0968
     18 N         138.8243  141.1889  161.9623 N.2     1  UNL1       -0.2465
     19 C         138.4127  141.3764  159.3278 C.ar    1  UNL1        0.0193
     20 C         139.1281  142.6912  159.2293 C.ar    1  UNL1        0.0016
     21 C         139.2276  143.3936  157.9077 C.ar    1  UNL1        0.0006
     22 C         138.6117  142.7813  156.6847 C.ar    1  UNL1        0.0067
     23 C         137.8964  141.4667  156.7832 C.ar    1  UNL1        0.0346
     24 BR        137.2804  140.8544  155.5601 Br      1  UNL1       -0.0490
     25 C         137.7968  140.7642  158.1048 C.ar    1  UNL1        0.0082
@<TRIPOS>BOND
     1     7     8    1
     2     8     9    2
     3     8    10   am
     4    10    11   am
     5    11    12    2
     6    11     1    1
     7     1     2    1
     8     2     3    1
     9     3     4    1
    10     4    14    1
    11    14    15    1
    12    15    16    2
    13    16    17    1
    14    17    19    1
    15    19    20   ar
    16    20    21   ar
    17    21    22   ar
    18    22    23   ar
    19    23    24    1
    20    23    25   ar
    21    17    18    2
    22     4     5    1
    23     5     6    1
    24     6     1    1
    25    18    14    1
    26    25    19   ar
    27    10    13    1
@<TRIPOS>MOLECULE
*****
 25 27 0 0 0
SMALL
GASTEIGER

@<TRIPOS>ATOM
      1 C         141.3566  144.9696  158.8662 C.3     1  UNL1        0.0769
      2 C         140.5991  145.6335  159.9777 C.3     1  UNL1        0.0092
      3 C         140.7410  145.1341  161.3849 C.3     1  UNL1        0.0044
      4 C         141.6404  143.9707  161.6808 C.3     1  UNL1        0.0457
      5 C         142.3979  143.3067  160.5693 C.3     1  UNL1        0.0044
      6 C         142.2560  143.8062  159.1621 C.3     1  UNL1        0.0092
      7 C         138.9547  147.9848  155.3820 C.3     1  UNL1        0.0950
      8 C         140.0138  146.9766  155.7168 C.2     1  UNL1        0.2286
      9 O         140.9310  146.4680  154.6444 O.2     1  UNL1       -0.2747
     10 N         140.1557  146.4772  157.1241 N.am    1  UNL1       -0.2553
     11 C         141.2148  145.4691  157.4590 C.2     1  UNL1        0.2276
     12 O         142.1319  144.9605  156.3866 O.2     1  UNL1       -0.2747
     13 H         139.5537  146.8110  157.8280 H       1  UNL1        0.1575
     14 C         141.7823  143.4712  163.0880 C.3     1  UNL1        0.2049
     15 N         142.9639  143.6890  163.9860 N.2     1  UNL1       -0.2450
     16 C         142.6794  143.0187  165.2974 C.2     1  UNL1        0.1140
     17 C         141.3219  142.3865  165.2099 C.2     1  UNL1        0.0968
     18 N         140.7675  142.6662  163.8444 N.2     1  UNL1       -0.2465
     19 C         140.6388  141.6108  166.2969 C.ar    1  UNL1        0.0193
     20 C         140.9185  141.9302  167.7356 C.ar    1  UNL1        0.0016
     21 C         140.2354  141.1545  168.8225 C.ar    1  UNL1        0.0006
     22 C         139.2725  140.0595  168.4709 C.ar    1  UNL1        0.0067
     23 C         138.9928  139.7401  167.0323 C.ar    1  UNL1        0.0346
     24 BR        138.0298  138.6449  166.6806 Br      1  UNL1       -0.0490
     25 C         139.6759  140.5157  165.9453 C.ar    1  UNL1        0.0082
@<TRIPOS>BOND
     1     7     8    1
     2     8     9    2
     3     8    10   am
     4    10    11   am
     5    11    12    2
     6    11     1    1
     7     1     2    1
     8     2     3    1
     9     3     4    1
    10     4    14    1
    11    14    15    1
    12    15    16    2
    13    16    17    1
    14    17    19    1
    15    19    20   ar
    16    20    21   ar
    17    21    22   ar
    18    22    23   ar
    19    23    24    1
    20    23    25   ar
    21    17    18    2
    22     4     5    1
    23     5     6    1
    24     6     1    1
    25    18    14    1
    26    25    19   ar
    27    10    13    1
@<TRIPOS>MOLECULE
*****
 25 27 0 0 0
SMALL
GASTEIGER

@<TRIPOS>ATOM
      1 C         139.8905  138.9007  160.4920 C.3     1  UNL1        0.0769
      2 C         138.8761  138.0619  161.2112 C.3     1  UNL1        0.0092
      3 C         138.7006  138.2043  162.6941 C.3     1  UNL1        0.0044
      4 C         139.5395  139.1856  163.4578 C.3     1  UNL1        0.0457
      5 C         140.5539  140.0244  162.7386 C.3     1  UNL1        0.0044
      6 C         140.7295  139.8819  161.2557 C.3     1  UNL1        0.0092
      7 C         142.8367  137.6023  156.4135 C.3     1  UNL1        0.0950
      8 C         141.5391  138.1091  156.9699 C.2     1  UNL1        0.2286
      9 O         140.4171  138.4733  156.0434 O.2     1  UNL1       -0.2747
     10 N         141.3636  138.2515  158.4527 N.am    1  UNL1       -0.2553
     11 C         140.0661  138.7582  159.0092 C.2     1  UNL1        0.2276
     12 O         138.9441  139.1225  158.0827 O.2     1  UNL1       -0.2747
     13 H         142.1000  138.0124  159.0608 H       1  UNL1        0.1575
     14 C         139.3640  139.3281  164.9406 C.3     1  UNL1        0.2049
     15 N         138.1852  138.8548  165.7385 N.2     1  UNL1       -0.2450
     16 C         138.4291  139.2030  167.1769 C.2     1  UNL1        0.1140
     17 C         139.7586  139.8915  167.2682 C.2     1  UNL1        0.0968
     18 N         140.3364  139.9688  165.8861 N.2     1  UNL1       -0.2465
     19 C         140.3981  140.4115  168.5214 C.ar    1  UNL1        0.0193
     20 C         139.7085  140.2394  169.8424 C.ar    1  UNL1        0.0016
     21 C         140.3481  140.7594  171.0956 C.ar    1  UNL1        0.0006
     22 C         141.6772  141.4514  171.0279 C.ar    1  UNL1        0.0067
     23 C         142.3667  141.6234  169.7070 C.ar    1  UNL1        0.0346
     24 BR        143.6960  142.3154  169.6393 Br      1  UNL1       -0.0490
     25 C         141.7272  141.1035  168.4538 C.ar    1  UNL1        0.0082
@<TRIPOS>BOND
     1     7     8    1
     2     8     9    2
     3     8    10   am
     4    10    11   am
     5    11    12    2
     6    11     1    1
     7     1     2    1
     8     2     3    1
     9     3     4    1
    10     4    14    1
    11    14    15    1
    12    15    16    2
    13    16    17    1
    14    17    19    1
    15    19    20   ar
    16    20    21   ar
    17    21    22   ar
    18    22    23   ar
    19    23    24    1
    20    23    25   ar
    21    17    18    2
    22     4     5    1
    23     5     6    1
    24     6     1    1
    25    18    14    1
    26    25    19   ar
    27    10    13    1
@<TRIPOS>MOLECULE
*****
 25 27 0 0 0
SMALL
GASTEIGER

@<TRIPOS>ATOM
      1 C         138.6366  139.3346  165.7448 C.3     1  UNL1        0.0769
      2 C         139.3015  138.1522  165.1047 C.3     1  UNL1        0.0092
      3 C         139.4479  138.0906  163.6131 C.3     1  UNL1        0.0044
      4 C         138.9293  139.2114  162.7617 C.3     1  UNL1        0.0457
      5 C         138.2644  140.3937  163.4019 C.3     1  UNL1        0.0044
      6 C         138.1180  140.4553  164.8934 C.3     1  UNL1        0.0092
      7 C         140.1080  141.2763  170.3345 C.3     1  UNL1        0.0950
      8 C         139.2259  140.3670  169.5312 C.2     1  UNL1        0.2286
      9 O         138.1974  139.5194  170.2196 O.2     1  UNL1       -0.2747
     10 N         139.3723  140.3054  168.0397 N.am    1  UNL1       -0.2553
     11 C         138.4902  139.3962  167.2364 C.2     1  UNL1        0.2276
     12 O         137.4617  138.5486  167.9247 O.2     1  UNL1       -0.2747
     13 H         140.0473  140.8617  167.5879 H       1  UNL1        0.1575
     14 C         139.0757  139.1498  161.2701 C.3     1  UNL1        0.2049
     15 N         139.8634  138.1295  160.5029 N.2     1  UNL1       -0.2450
     16 C         139.7346  138.4468  159.0425 C.2     1  UNL1        0.1140
     17 C         138.8673  139.6631  158.9071 C.2     1  UNL1        0.0968
     18 N         138.4601  140.0976  160.2839 N.2     1  UNL1       -0.2465
     19 C         138.4759  140.3282  157.6209 C.ar    1  UNL1        0.0193
     20 C         137.3985  141.3719  157.6138 C.ar    1  UNL1        0.0016
     21 C         137.0072  142.0370  156.3275 C.ar    1  UNL1        0.0006
     22 C         137.6932  141.6584  155.0484 C.ar    1  UNL1        0.0067
     23 C         138.7704  140.6148  155.0556 C.ar    1  UNL1        0.0346
     24 BR        139.4565  140.2361  153.7764 Br      1  UNL1       -0.0490
     25 C         139.1618  139.9496  156.3418 C.ar    1  UNL1        0.0082
@<TRIPOS>BOND
     1     7     8    1
     2     8     9    2
     3     8    10   am
     4    10    11   am
     5    11    12    2
     6    11     1    1
     7     1     2    1
     8     2     3    1
     9     3     4    1
    10     4    14    1
    11    14    15    1
    12    15    16    2
    13    16    17    1
    14    17    19    1
    15    19    20   ar
    16    20    21   ar
    17    21    22   ar
    18    22    23   ar
    19    23    24    1
    20    23    25   ar
    21    17    18    2
    22     4     5    1
    23     5     6    1
    24     6     1    1
    25    18    14    1
    26    25    19   ar
    27    10    13    1
