@<TRIPOS>MOLECULE
*****
 25 28 0 0 0
SMALL
GASTEIGER

@<TRIPOS>ATOM
      1 O         141.4802  139.6733  165.1576 O.2     1  UNL1       -0.2520
      2 C         140.2198  139.3849  165.9179 C.2     1  UNL1        0.3111
      3 N         139.0805  138.5314  165.4450 N.am    1  UNL1       -0.2606
      4 C         138.0339  138.5184  166.5196 C.3     1  UNL1        0.1169
      5 C         138.5265  139.3639  167.6565 C.3     1  UNL1        0.1212
      6 N         139.8774  139.8994  167.2847 N.am    1  UNL1       -0.2413
      7 C         140.7351  140.7926  168.1311 C.ar    1  UNL1        0.0563
      8 C         142.1374  140.3829  168.4715 C.ar    1  UNL1        0.0173
      9 C         142.9951  141.2761  169.3179 C.ar    1  UNL1        0.0318
     10 C         142.4506  142.5790  169.8239 C.ar    1  UNL1        0.1507
     11 F         143.3085  143.4723  170.6703 F       1  UNL1       -0.2033
     12 C         141.0484  142.9887  169.4835 C.ar    1  UNL1        0.0863
     13 CL        140.5039  144.2916  169.9895 Cl      1  UNL1       -0.0799
     14 C         140.1907  142.0955  168.6371 C.ar    1  UNL1        0.0286
     15 C         139.0017  137.8165  164.1287 C.3     1  UNL1        0.1123
     16 C         138.4937  138.5352  162.9141 C.3     1  UNL1        0.0944
     17 N         138.6635  140.0209  162.7960 N.3     1  UNL1       -0.2637
     18 C         139.8447  140.7289  162.2015 C.3     1  UNL1        0.0992
     19 C         139.5931  142.2050  162.2898 C.ar    1  UNL1       -0.0088
     20 C         140.4085  143.3894  161.8629 C.ar    1  UNL1       -0.0032
     21 C         139.8872  144.7782  162.0852 C.ar    1  UNL1       -0.0003
     22 C         138.5504  144.9825  162.7343 C.ar    1  UNL1       -0.0003
     23 C         137.7350  143.7981  163.1612 C.ar    1  UNL1       -0.0032
     24 C         138.2564  142.4093  162.9389 C.ar    1  UNL1       -0.0088
     25 C         137.6818  141.0595  163.2517 C.3     1  UNL1        0.0992
@<TRIPOS>BOND
     1     1     2    2
     2     2     3   am
     3     3    15    1
     4    15    16    1
     5    16    17    1
     6    17    18    1
     7    18    19    1
     8    19    20   ar
     9    20    21   ar
    10    21    22   ar
    11    22    23   ar
    12    23    24   ar
    13    24    25    1
    14     3     4    1
    15     4     5    1
    16     5     6    1
    17     6     7    1
    18     7     8   ar
    19     8     9   ar
    20     9    10   ar
    21    10    11    1
    22    10    12   ar
    23    12    13    1
    24    12    14   ar
    25     6     2   am
    26    14     7   ar
    27    25    17    1
    28    24    19   ar
@<TRIPOS>MOLECULE
*****
 25 28 0 0 0
SMALL
GASTEIGER

@<TRIPOS>ATOM
      1 O         138.9055  142.3947  165.5113 O.2     1  UNL1       -0.2520
      2 C         138.8990  141.0345  164.8789 C.2     1  UNL1        0.3111
      3 N         138.1816  140.6516  163.6185 N.am    1  UNL1       -0.2606
      4 C         138.4481  139.1988  163.3566 C.3     1  UNL1        0.1169
      5 C         139.3302  138.6840  164.4552 C.3     1  UNL1        0.1212
      6 N         139.6089  139.8185  165.3960 N.am    1  UNL1       -0.2413
      7 C         140.4497  139.7491  166.6362 C.ar    1  UNL1        0.0563
      8 C         141.9106  139.4243  166.5346 C.ar    1  UNL1        0.0173
      9 C         142.7514  139.3549  167.7748 C.ar    1  UNL1        0.0318
     10 C         142.1314  139.6103  169.1166 C.ar    1  UNL1        0.1507
     11 F         142.9723  139.5409  170.3569 F       1  UNL1       -0.2033
     12 C         140.6705  139.9351  169.2182 C.ar    1  UNL1        0.0863
     13 CL        140.0505  140.1905  170.5599 Cl      1  UNL1       -0.0799
     14 C         139.8297  140.0045  167.9779 C.ar    1  UNL1        0.0286
     15 C         137.3447  141.5616  162.7691 C.3     1  UNL1        0.1123
     16 C         138.0040  142.5665  161.8717 C.3     1  UNL1        0.0944
     17 N         139.3996  143.0318  162.1644 N.3     1  UNL1       -0.2637
     18 C         140.6645  142.3701  161.7039 C.3     1  UNL1        0.0992
     19 C         141.8221  143.1699  162.2240 C.ar    1  UNL1       -0.0088
     20 C         143.3054  142.9948  162.0865 C.ar    1  UNL1       -0.0032
     21 C         144.2393  143.9758  162.7310 C.ar    1  UNL1       -0.0003
     22 C         143.6898  145.1319  163.5130 C.ar    1  UNL1       -0.0003
     23 C         142.2064  145.3070  163.6504 C.ar    1  UNL1       -0.0032
     24 C         141.2726  144.3260  163.0059 C.ar    1  UNL1       -0.0088
     25 C         139.7754  144.2407  162.9691 C.3     1  UNL1        0.0992
@<TRIPOS>BOND
     1     1     2    2
     2     2     3   am
     3     3    15    1
     4    15    16    1
     5    16    17    1
     6    17    18    1
     7    18    19    1
     8    19    20   ar
     9    20    21   ar
    10    21    22   ar
    11    22    23   ar
    12    23    24   ar
    13    24    25    1
    14     3     4    1
    15     4     5    1
    16     5     6    1
    17     6     7    1
    18     7     8   ar
    19     8     9   ar
    20     9    10   ar
    21    10    11    1
    22    10    12   ar
    23    12    13    1
    24    12    14   ar
    25     6     2   am
    26    14     7   ar
    27    25    17    1
    28    24    19   ar
@<TRIPOS>MOLECULE
*****
 25 28 0 0 0
SMALL
GASTEIGER

@<TRIPOS>ATOM
      1 O         137.7249  139.2728  165.8530 O.2     1  UNL1       -0.2520
      2 C         139.1485  138.9745  165.4866 C.2     1  UNL1        0.3111
      3 N         139.6083  138.2367  164.2642 N.am    1  UNL1       -0.2606
      4 C         141.1063  138.1677  164.3004 C.3     1  UNL1        0.1169
      5 C         141.5723  138.8629  165.5453 C.3     1  UNL1        0.1212
      6 N         140.3623  139.3615  166.2784 N.am    1  UNL1       -0.2413
      7 C         140.3656  140.1148  167.5754 C.ar    1  UNL1        0.0563
      8 C         139.2562  139.9107  168.5641 C.ar    1  UNL1        0.0173
      9 C         139.2596  140.6641  169.8612 C.ar    1  UNL1        0.0318
     10 C         140.3724  141.6216  170.1696 C.ar    1  UNL1        0.1507
     11 F         140.3758  142.3750  171.4667 F       1  UNL1       -0.2033
     12 C         141.4818  141.8256  169.1808 C.ar    1  UNL1        0.0863
     13 CL        142.5946  142.7831  169.4892 Cl      1  UNL1       -0.0799
     14 C         141.4784  141.0723  167.8838 C.ar    1  UNL1        0.0286
     15 C         138.7251  137.6677  163.1935 C.3     1  UNL1        0.1123
     16 C         138.1372  138.5692  162.1487 C.3     1  UNL1        0.0944
     17 N         138.3966  140.0457  162.1999 N.3     1  UNL1       -0.2637
     18 C         137.5109  141.0749  162.8371 C.3     1  UNL1        0.0992
     19 C         138.1542  142.4176  162.6539 C.ar    1  UNL1       -0.0088
     20 C         137.7371  143.7959  163.0735 C.ar    1  UNL1       -0.0032
     21 C         138.6034  144.9749  162.7426 C.ar    1  UNL1       -0.0003
     22 C         139.8868  144.7754  161.9921 C.ar    1  UNL1       -0.0003
     23 C         140.3038  143.3971  161.5725 C.ar    1  UNL1       -0.0032
     24 C         139.4375  142.2181  161.9034 C.ar    1  UNL1       -0.0088
     25 C         139.5873  140.7522  161.6228 C.3     1  UNL1        0.0992
@<TRIPOS>BOND
     1     1     2    2
     2     2     3   am
     3     3    15    1
     4    15    16    1
     5    16    17    1
     6    17    18    1
     7    18    19    1
     8    19    20   ar
     9    20    21   ar
    10    21    22   ar
    11    22    23   ar
    12    23    24   ar
    13    24    25    1
    14     3     4    1
    15     4     5    1
    16     5     6    1
    17     6     7    1
    18     7     8   ar
    19     8     9   ar
    20     9    10   ar
    21    10    11    1
    22    10    12   ar
    23    12    13    1
    24    12    14   ar
    25     6     2   am
    26    14     7   ar
    27    25    17    1
    28    24    19   ar
@<TRIPOS>MOLECULE
*****
 25 28 0 0 0
SMALL
GASTEIGER

@<TRIPOS>ATOM
      1 O         141.5231  140.6588  162.8221 O.2     1  UNL1       -0.2520
      2 C         142.5564  140.0386  163.7152 C.2     1  UNL1        0.3111
      3 N         144.0348  140.0072  163.4637 N.am    1  UNL1       -0.2606
      4 C         144.6849  139.2900  164.6097 C.3     1  UNL1        0.1169
      5 C         143.6080  138.8782  165.5694 C.3     1  UNL1        0.1212
      6 N         142.2926  139.3408  165.0166 N.am    1  UNL1       -0.2413
      7 C         140.9494  139.1408  165.6533 C.ar    1  UNL1        0.0563
      8 C         139.9099  138.3066  164.9652 C.ar    1  UNL1        0.0173
      9 C         138.5666  138.1066  165.6020 C.ar    1  UNL1        0.0318
     10 C         138.2628  138.7408  166.9270 C.ar    1  UNL1        0.1507
     11 F         136.9194  138.5408  167.5638 F       1  UNL1       -0.2033
     12 C         139.3023  139.5750  167.6152 C.ar    1  UNL1        0.0863
     13 CL        138.9985  140.2092  168.9401 Cl      1  UNL1       -0.0799
     14 C         140.6456  139.7750  166.9783 C.ar    1  UNL1        0.0286
     15 C         144.7396  140.5905  162.2750 C.3     1  UNL1        0.1123
     16 C         144.9531  142.0723  162.1824 C.3     1  UNL1        0.0944
     17 N         143.7859  142.9852  161.9496 N.3     1  UNL1       -0.2637
     18 C         143.1266  143.2543  160.6294 C.3     1  UNL1        0.0992
     19 C         142.0062  144.2247  160.8599 C.ar    1  UNL1       -0.0088
     20 C         141.0120  144.8499  159.9269 C.ar    1  UNL1       -0.0032
     21 C         139.9846  145.8058  160.4567 C.ar    1  UNL1       -0.0003
     22 C         139.9514  146.1364  161.9194 C.ar    1  UNL1       -0.0003
     23 C         140.9456  145.5111  162.8524 C.ar    1  UNL1       -0.0032
     24 C         141.9730  144.5553  162.3227 C.ar    1  UNL1       -0.0088
     25 C         143.0729  143.7892  162.9961 C.3     1  UNL1        0.0992
@<TRIPOS>BOND
     1     1     2    2
     2     2     3   am
     3     3    15    1
     4    15    16    1
     5    16    17    1
     6    17    18    1
     7    18    19    1
     8    19    20   ar
     9    20    21   ar
    10    21    22   ar
    11    22    23   ar
    12    23    24   ar
    13    24    25    1
    14     3     4    1
    15     4     5    1
    16     5     6    1
    17     6     7    1
    18     7     8   ar
    19     8     9   ar
    20     9    10   ar
    21    10    11    1
    22    10    12   ar
    23    12    13    1
    24    12    14   ar
    25     6     2   am
    26    14     7   ar
    27    25    17    1
    28    24    19   ar
@<TRIPOS>MOLECULE
*****
 25 28 0 0 0
SMALL
GASTEIGER

@<TRIPOS>ATOM
      1 O         140.2656  141.5892  160.9326 O.2     1  UNL1       -0.2520
      2 C         139.5480  142.5629  161.8197 C.2     1  UNL1        0.3111
      3 N         139.3831  144.0318  161.5649 N.am    1  UNL1       -0.2606
      4 C         138.6025  144.6154  162.7052 C.3     1  UNL1        0.1169
      5 C         138.2850  143.5069  163.6648 C.3     1  UNL1        0.1212
      6 N         138.8694  142.2385  163.1175 N.am    1  UNL1       -0.2413
      7 C         138.7892  140.8836  163.7560 C.ar    1  UNL1        0.0563
      8 C         138.7849  139.6508  162.9014 C.ar    1  UNL1        0.0173
      9 C         138.7047  138.2959  163.5400 C.ar    1  UNL1        0.0318
     10 C         138.6288  138.1737  165.0331 C.ar    1  UNL1        0.1507
     11 F         138.5486  136.8187  165.6717 F       1  UNL1       -0.2033
     12 C         138.6332  139.4065  165.8877 C.ar    1  UNL1        0.0863
     13 CL        138.5573  139.2843  167.3808 Cl      1  UNL1       -0.0799
     14 C         138.7134  140.7614  165.2491 C.ar    1  UNL1        0.0286
     15 C         139.9068  144.7851  160.3781 C.3     1  UNL1        0.1123
     16 C         141.3845  144.9708  160.2002 C.3     1  UNL1        0.0944
     17 N         142.3423  144.3236  161.1560 N.3     1  UNL1       -0.2637
     18 C         143.3150  143.2307  160.8250 C.3     1  UNL1        0.0992
     19 C         144.0694  142.8872  162.0751 C.ar    1  UNL1       -0.0088
     20 C         145.1521  141.8864  162.3510 C.ar    1  UNL1       -0.0032
     21 C         145.7283  141.7661  163.7306 C.ar    1  UNL1       -0.0003
     22 C         145.2219  142.6467  164.8343 C.ar    1  UNL1       -0.0003
     23 C         144.1392  143.6475  164.5584 C.ar    1  UNL1       -0.0032
     24 C         143.5630  143.7678  163.1788 C.ar    1  UNL1       -0.0088
     25 C         142.4956  144.6555  162.6108 C.3     1  UNL1        0.0992
@<TRIPOS>BOND
     1     1     2    2
     2     2     3   am
     3     3    15    1
     4    15    16    1
     5    16    17    1
     6    17    18    1
     7    18    19    1
     8    19    20   ar
     9    20    21   ar
    10    21    22   ar
    11    22    23   ar
    12    23    24   ar
    13    24    25    1
    14     3     4    1
    15     4     5    1
    16     5     6    1
    17     6     7    1
    18     7     8   ar
    19     8     9   ar
    20     9    10   ar
    21    10    11    1
    22    10    12   ar
    23    12    13    1
    24    12    14   ar
    25     6     2   am
    26    14     7   ar
    27    25    17    1
    28    24    19   ar
@<TRIPOS>MOLECULE
*****
 25 28 0 0 0
SMALL
GASTEIGER

@<TRIPOS>ATOM
      1 O         143.1607  142.6974  165.5241 O.2     1  UNL1       -0.2520
      2 C         143.5906  141.2793  165.2913 C.2     1  UNL1        0.3111
      3 N         144.7211  140.8338  164.4118 N.am    1  UNL1       -0.2606
      4 C         144.7947  139.3368  164.4740 C.3     1  UNL1        0.1169
      5 C         143.7095  138.8572  165.3920 C.3     1  UNL1        0.1212
      6 N         142.9654  140.0577  165.8971 N.am    1  UNL1       -0.2413
      7 C         141.8006  140.0397  166.8419 C.ar    1  UNL1        0.0563
      8 C         141.9831  140.4748  168.2658 C.ar    1  UNL1        0.0173
      9 C         140.8182  140.4568  169.2106 C.ar    1  UNL1        0.0318
     10 C         139.4709  140.0037  168.7317 C.ar    1  UNL1        0.1507
     11 F         138.3060  139.9857  169.6766 F       1  UNL1       -0.2033
     12 C         139.2884  139.5686  167.3078 C.ar    1  UNL1        0.0863
     13 CL        137.9411  139.1155  166.8288 Cl      1  UNL1       -0.0799
     14 C         140.4533  139.5866  166.3629 C.ar    1  UNL1        0.0286
     15 C         145.6203  141.7282  163.6108 C.3     1  UNL1        0.1123
     16 C         145.1159  142.3628  162.3488 C.3     1  UNL1        0.0944
     17 N         143.7205  142.9100  162.2902 N.3     1  UNL1       -0.2637
     18 C         143.3120  144.3187  162.6042 C.3     1  UNL1        0.0992
     19 C         141.8276  144.4240  162.4154 C.ar    1  UNL1       -0.0088
     20 C         140.8736  145.5697  162.5800 C.ar    1  UNL1       -0.0032
     21 C         139.4108  145.3718  162.3140 C.ar    1  UNL1       -0.0003
     22 C         138.9019  144.0281  161.8833 C.ar    1  UNL1       -0.0003
     23 C         139.8559  142.8823  161.7187 C.ar    1  UNL1       -0.0032
     24 C         141.3187  143.0803  161.9847 C.ar    1  UNL1       -0.0088
     25 C         142.4886  142.1446  161.9074 C.3     1  UNL1        0.0992
@<TRIPOS>BOND
     1     1     2    2
     2     2     3   am
     3     3    15    1
     4    15    16    1
     5    16    17    1
     6    17    18    1
     7    18    19    1
     8    19    20   ar
     9    20    21   ar
    10    21    22   ar
    11    22    23   ar
    12    23    24   ar
    13    24    25    1
    14     3     4    1
    15     4     5    1
    16     5     6    1
    17     6     7    1
    18     7     8   ar
    19     8     9   ar
    20     9    10   ar
    21    10    11    1
    22    10    12   ar
    23    12    13    1
    24    12    14   ar
    25     6     2   am
    26    14     7   ar
    27    25    17    1
    28    24    19   ar
@<TRIPOS>MOLECULE
*****
 25 28 0 0 0
SMALL
GASTEIGER

@<TRIPOS>ATOM
      1 O         143.1559  142.5118  165.4904 O.2     1  UNL1       -0.2520
      2 C         143.2533  141.0559  165.8379 C.2     1  UNL1        0.3111
      3 N         144.0286  140.0186  165.0809 N.am    1  UNL1       -0.2606
      4 C         143.8468  138.7032  165.7787 C.3     1  UNL1        0.1169
      5 C         142.9591  138.9276  166.9668 C.3     1  UNL1        0.1212
      6 N         142.5923  140.3816  167.0034 N.am    1  UNL1       -0.2413
      7 C         141.7180  141.0448  168.0260 C.ar    1  UNL1        0.0563
      8 C         142.0622  142.4141  168.5324 C.ar    1  UNL1        0.0173
      9 C         141.1879  143.0772  169.5550 C.ar    1  UNL1        0.0318
     10 C         139.9693  142.3710  170.0712 C.ar    1  UNL1        0.1507
     11 F         139.0950  143.0342  171.0939 F       1  UNL1       -0.2033
     12 C         139.6251  141.0017  169.5648 C.ar    1  UNL1        0.0863
     13 CL        138.4065  140.2955  170.0810 Cl      1  UNL1       -0.0799
     14 C         140.4995  140.3386  168.5422 C.ar    1  UNL1        0.0286
     15 C         144.8428  140.2552  163.8435 C.3     1  UNL1        0.1123
     16 C         144.1802  140.2518  162.4978 C.3     1  UNL1        0.0944
     17 N         142.7081  139.9863  162.3873 N.3     1  UNL1       -0.2637
     18 C         142.0601  138.6365  162.2959 C.3     1  UNL1        0.0992
     19 C         140.5769  138.8398  162.2008 C.ar    1  UNL1       -0.0088
     20 C         139.4364  137.8721  162.0888 C.ar    1  UNL1       -0.0032
     21 C         138.0272  138.3798  162.0093 C.ar    1  UNL1       -0.0003
     22 C         137.7585  139.8552  162.0420 C.ar    1  UNL1       -0.0003
     23 C         138.8991  140.8229  162.1540 C.ar    1  UNL1       -0.0032
     24 C         140.3083  140.3152  162.2334 C.ar    1  UNL1       -0.0088
     25 C         141.6254  141.0237  162.3487 C.3     1  UNL1        0.0992
@<TRIPOS>BOND
     1     1     2    2
     2     2     3   am
     3     3    15    1
     4    15    16    1
     5    16    17    1
     6    17    18    1
     7    18    19    1
     8    19    20   ar
     9    20    21   ar
    10    21    22   ar
    11    22    23   ar
    12    23    24   ar
    13    24    25    1
    14     3     4    1
    15     4     5    1
    16     5     6    1
    17     6     7    1
    18     7     8   ar
    19     8     9   ar
    20     9    10   ar
    21    10    11    1
    22    10    12   ar
    23    12    13    1
    24    12    14   ar
    25     6     2   am
    26    14     7   ar
    27    25    17    1
    28    24    19   ar
@<TRIPOS>MOLECULE
*****
 25 28 0 0 0
SMALL
GASTEIGER

@<TRIPOS>ATOM
      1 O         141.3534  141.5704  161.1315 O.2     1  UNL1       -0.2520
      2 C         140.0342  140.8599  161.0617 C.2     1  UNL1        0.3111
      3 N         139.6944  139.7192  160.1488 N.am    1  UNL1       -0.2606
      4 C         138.2733  139.3197  160.4154 C.3     1  UNL1        0.1169
      5 C         137.7349  140.2135  161.4931 C.3     1  UNL1        0.1212
      6 N         138.8232  141.1654  161.8925 N.am    1  UNL1       -0.2413
      7 C         138.7188  142.2350  162.9389 C.ar    1  UNL1        0.0563
      8 C         137.8343  143.4246  162.7098 C.ar    1  UNL1        0.0173
      9 C         137.7299  144.4941  163.7563 C.ar    1  UNL1        0.0318
     10 C         138.5100  144.3741  165.0319 C.ar    1  UNL1        0.1507
     11 F         138.4056  145.4437  166.0784 F       1  UNL1       -0.2033
     12 C         139.3945  143.1845  165.2609 C.ar    1  UNL1        0.0863
     13 CL        140.1747  143.0644  166.5365 Cl      1  UNL1       -0.0799
     14 C         139.4989  142.1149  164.2144 C.ar    1  UNL1        0.0286
     15 C         140.6141  139.0887  159.1455 C.3     1  UNL1        0.1123
     16 C         141.7622  138.2420  159.6088 C.3     1  UNL1        0.0944
     17 N         142.2390  138.3363  161.0279 N.3     1  UNL1       -0.2637
     18 C         143.5131  138.9797  161.4890 C.3     1  UNL1        0.0992
     19 C         143.5869  138.8449  162.9811 C.ar    1  UNL1       -0.0088
     20 C         144.6141  139.2900  163.9795 C.ar    1  UNL1       -0.0032
     21 C         144.4127  139.0082  165.4390 C.ar    1  UNL1       -0.0003
     22 C         143.1842  138.2814  165.9000 C.ar    1  UNL1       -0.0003
     23 C         142.1571  137.8363  164.9017 C.ar    1  UNL1       -0.0032
     24 C         142.3585  138.1180  163.4422 C.ar    1  UNL1       -0.0088
     25 C         141.5254  137.8037  162.2350 C.3     1  UNL1        0.0992
@<TRIPOS>BOND
     1     1     2    2
     2     2     3   am
     3     3    15    1
     4    15    16    1
     5    16    17    1
     6    17    18    1
     7    18    19    1
     8    19    20   ar
     9    20    21   ar
    10    21    22   ar
    11    22    23   ar
    12    23    24   ar
    13    24    25    1
    14     3     4    1
    15     4     5    1
    16     5     6    1
    17     6     7    1
    18     7     8   ar
    19     8     9   ar
    20     9    10   ar
    21    10    11    1
    22    10    12   ar
    23    12    13    1
    24    12    14   ar
    25     6     2   am
    26    14     7   ar
    27    25    17    1
    28    24    19   ar
@<TRIPOS>MOLECULE
*****
 25 28 0 0 0
SMALL
GASTEIGER

@<TRIPOS>ATOM
      1 O         141.4703  141.6896  160.7021 O.2     1  UNL1       -0.2520
      2 C         140.3164  142.4557  161.2780 C.2     1  UNL1        0.3111
      3 N         138.9116  142.4614  160.7522 N.am    1  UNL1       -0.2606
      4 C         138.0917  143.3598  161.6302 C.3     1  UNL1        0.1169
      5 C         138.9899  143.9094  162.6985 C.3     1  UNL1        0.1212
      6 N         140.3648  143.3506  162.4809 N.am    1  UNL1       -0.2413
      7 C         141.5755  143.6365  163.3189 C.ar    1  UNL1        0.0563
      8 C         142.4922  144.7656  162.9518 C.ar    1  UNL1        0.0173
      9 C         143.7029  145.0515  163.7899 C.ar    1  UNL1        0.0318
     10 C         143.9969  144.2083  164.9952 C.ar    1  UNL1        0.1507
     11 F         145.2077  144.4942  165.8333 F       1  UNL1       -0.2033
     12 C         143.0802  143.0792  165.3623 C.ar    1  UNL1        0.0863
     13 CL        143.3741  142.2360  166.5676 Cl      1  UNL1       -0.0799
     14 C         141.8695  142.7933  164.5242 C.ar    1  UNL1        0.0286
     15 C         138.4140  141.7020  159.5582 C.3     1  UNL1        0.1123
     16 C         138.2689  140.2105  159.6251 C.3     1  UNL1        0.0944
     17 N         138.7512  139.4634  160.8330 N.3     1  UNL1       -0.2637
     18 C         140.0201  138.6694  160.9302 C.3     1  UNL1        0.0992
     19 C         140.1024  138.0944  162.3132 C.ar    1  UNL1       -0.0088
     20 C         141.1291  137.2281  162.9805 C.ar    1  UNL1       -0.0032
     21 C         140.9377  136.8005  164.4054 C.ar    1  UNL1       -0.0003
     22 C         139.7197  137.2391  165.1630 C.ar    1  UNL1       -0.0003
     23 C         138.6930  138.1054  164.4957 C.ar    1  UNL1       -0.0032
     24 C         138.8843  138.5331  163.0708 C.ar    1  UNL1       -0.0088
     25 C         138.0493  139.3791  162.1560 C.3     1  UNL1        0.0992
@<TRIPOS>BOND
     1     1     2    2
     2     2     3   am
     3     3    15    1
     4    15    16    1
     5    16    17    1
     6    17    18    1
     7    18    19    1
     8    19    20   ar
     9    20    21   ar
    10    21    22   ar
    11    22    23   ar
    12    23    24   ar
    13    24    25    1
    14     3     4    1
    15     4     5    1
    16     5     6    1
    17     6     7    1
    18     7     8   ar
    19     8     9   ar
    20     9    10   ar
    21    10    11    1
    22    10    12   ar
    23    12    13    1
    24    12    14   ar
    25     6     2   am
    26    14     7   ar
    27    25    17    1
    28    24    19   ar
