@<TRIPOS>MOLECULE
*****
 26 28 0 0 0
SMALL
GASTEIGER

@<TRIPOS>ATOM
      1 N         142.4301  143.9520  157.4786 N.3     1  UNL1       -0.2711
      2 C         141.4247  145.0609  157.3810 C.3     1  UNL1        0.0939
      3 C         140.6677  145.4963  158.6006 C.3     1  UNL1        0.1123
      4 N         140.9161  144.8229  159.9177 N.am    1  UNL1       -0.2612
      5 C         140.1591  145.2584  161.1372 C.2     1  UNL1        0.3072
      6 O         139.1537  146.3673  161.0397 O.2     1  UNL1       -0.2523
      7 N         140.4075  144.5850  162.4543 N.am    1  UNL1       -0.2639
      8 C         141.4129  143.4761  162.5519 C.3     1  UNL1        0.0966
      9 C         141.6613  142.8027  163.8690 C.3     1  UNL1        0.0412
     10 C         140.9043  143.2381  165.0886 C.3     1  UNL1        0.0750
     11 C         139.8989  144.3470  164.9910 C.3     1  UNL1        0.0412
     12 C         139.6505  145.0205  163.6739 C.3     1  UNL1        0.0966
     13 C         141.9215  143.7141  160.0152 C.3     1  UNL1        0.1123
     14 C         142.6785  143.2786  158.7957 C.3     1  UNL1        0.0939
     15 N         141.1527  142.5647  166.4057 N.am    1  UNL1       -0.3059
     16 C         140.2588  141.4481  166.8576 C.2     1  UNL1        0.2219
     17 O         139.1164  141.0050  165.9923 O.2     1  UNL1       -0.2751
     18 H         141.9025  142.8555  166.9736 H       1  UNL1        0.1494
     19 C         140.5072  140.7747  168.1747 C.3     1  UNL1        0.0765
     20 C         141.7397  140.0089  168.5547 C.3     1  UNL1        0.0091
     21 C         141.5611  139.5098  169.9579 C.3     1  UNL1        0.0005
     22 C         140.2180  139.9671  170.4450 C.3     1  UNL1        0.0005
     23 C         139.5668  140.7489  169.3429 C.3     1  UNL1        0.0091
     24 C         144.1477  142.3675  156.3431 C.3     1  UNL1        0.0173
     25 C         143.1871  143.5165  156.2590 C.3     1  UNL1        0.0577
     26 C         142.9836  144.2300  154.9554 C.3     1  UNL1        0.0173
@<TRIPOS>BOND
     1    24    25    1
     2    25    26    1
     3    25     1    1
     4     1     2    1
     5     2     3    1
     6     3     4    1
     7     4     5   am
     8     5     6    2
     9     5     7   am
    10     7     8    1
    11     8     9    1
    12     9    10    1
    13    10    15    1
    14    15    16   am
    15    16    17    2
    16    16    19    1
    17    19    20    1
    18    20    21    1
    19    21    22    1
    20    22    23    1
    21    10    11    1
    22    11    12    1
    23     4    13    1
    24    13    14    1
    25    14     1    1
    26    12     7    1
    27    23    19    1
    28    15    18    1
@<TRIPOS>MOLECULE
*****
 26 28 0 0 0
SMALL
GASTEIGER

@<TRIPOS>ATOM
      1 N         140.6767  141.9467  168.6391 N.3     1  UNL1       -0.2711
      2 C         139.6925  140.9170  169.1091 C.3     1  UNL1        0.0939
      3 C         139.1631  139.8925  168.1497 C.3     1  UNL1        0.1123
      4 N         139.6179  139.8979  166.7204 N.am    1  UNL1       -0.2612
      5 C         139.0886  138.8735  165.7610 C.2     1  UNL1        0.3072
      6 O         138.1044  137.8437  166.2310 O.2     1  UNL1       -0.2523
      7 N         139.5434  138.8788  164.3317 N.am    1  UNL1       -0.2639
      8 C         140.5276  139.9086  163.8616 C.3     1  UNL1        0.0966
      9 C         140.9824  139.9140  162.4323 C.3     1  UNL1        0.0412
     10 C         140.4530  138.8896  161.4729 C.3     1  UNL1        0.0750
     11 C         139.4689  137.8598  161.9429 C.3     1  UNL1        0.0412
     12 C         139.0140  137.8544  163.3724 C.3     1  UNL1        0.0966
     13 C         140.6021  140.9276  166.2504 C.3     1  UNL1        0.1123
     14 C         141.1315  141.9520  167.2098 C.3     1  UNL1        0.0939
     15 N         140.9079  138.8950  160.0435 N.am    1  UNL1       -0.3059
     16 C         142.1992  138.2324  159.6649 C.2     1  UNL1        0.2219
     17 O         143.0358  137.5644  160.7156 O.2     1  UNL1       -0.2751
     18 H         140.3589  139.3334  159.3539 H       1  UNL1        0.1494
     19 C         142.6540  138.2378  158.2356 C.3     1  UNL1        0.0765
     20 C         142.6567  137.0600  157.3067 C.3     1  UNL1        0.0091
     21 C         143.1903  137.5162  155.9811 C.3     1  UNL1        0.0005
     22 C         143.5175  138.9761  156.0908 C.3     1  UNL1        0.0005
     23 C         143.1860  139.4220  157.4841 C.3     1  UNL1        0.0091
     24 C         140.3678  144.1600  169.9641 C.3     1  UNL1        0.0173
     25 C         141.2061  142.9711  169.5985 C.3     1  UNL1        0.0577
     26 C         142.5737  142.8066  170.1921 C.3     1  UNL1        0.0173
@<TRIPOS>BOND
     1    24    25    1
     2    25    26    1
     3    25     1    1
     4     1     2    1
     5     2     3    1
     6     3     4    1
     7     4     5   am
     8     5     6    2
     9     5     7   am
    10     7     8    1
    11     8     9    1
    12     9    10    1
    13    10    15    1
    14    15    16   am
    15    16    17    2
    16    16    19    1
    17    19    20    1
    18    20    21    1
    19    21    22    1
    20    22    23    1
    21    10    11    1
    22    11    12    1
    23     4    13    1
    24    13    14    1
    25    14     1    1
    26    12     7    1
    27    23    19    1
    28    15    18    1
@<TRIPOS>MOLECULE
*****
 26 28 0 0 0
SMALL
GASTEIGER

@<TRIPOS>ATOM
      1 N         138.3123  142.2929  156.9413 N.3     1  UNL1       -0.2711
      2 C         139.3539  143.2665  156.4755 C.3     1  UNL1        0.0939
      3 C         140.1787  144.0189  157.4773 C.3     1  UNL1        0.1123
      4 N         139.9619  143.7977  158.9449 N.am    1  UNL1       -0.2612
      5 C         140.7867  144.5502  159.9467 C.2     1  UNL1        0.3072
      6 O         141.8283  145.5238  159.4808 O.2     1  UNL1       -0.2523
      7 N         140.5699  144.3290  161.4143 N.am    1  UNL1       -0.2639
      8 C         139.5283  143.3553  161.8803 C.3     1  UNL1        0.0966
      9 C         139.3114  143.1341  163.3479 C.3     1  UNL1        0.0412
     10 C         140.1363  143.8865  164.3497 C.3     1  UNL1        0.0750
     11 C         141.1779  144.8601  163.8838 C.3     1  UNL1        0.0412
     12 C         141.3947  145.0814  162.4161 C.3     1  UNL1        0.0966
     13 C         138.9203  142.8241  159.4108 C.3     1  UNL1        0.1123
     14 C         138.0955  142.0717  158.4090 C.3     1  UNL1        0.0939
     15 N         139.9194  143.6653  165.8174 N.am    1  UNL1       -0.3059
     16 C         140.5387  142.4800  166.4967 C.2     1  UNL1        0.2219
     17 O         141.3748  141.5159  165.7084 O.2     1  UNL1       -0.2751
     18 H         139.3706  144.2980  166.3348 H       1  UNL1        0.1494
     19 C         140.3218  142.2588  167.9644 C.3     1  UNL1        0.0765
     20 C         140.3748  143.3112  169.0320 C.3     1  UNL1        0.0091
     21 C         140.0996  142.6492  170.3495 C.3     1  UNL1        0.0005
     22 C         139.8765  141.1876  170.0962 C.3     1  UNL1        0.0005
     23 C         140.0138  140.9464  168.6221 C.3     1  UNL1        0.0091
     24 C         136.1303  141.0272  156.3196 C.3     1  UNL1        0.0173
     25 C         137.4875  141.5405  155.9396 C.3     1  UNL1        0.0577
     26 C         138.0199  141.3014  154.5578 C.3     1  UNL1        0.0173
@<TRIPOS>BOND
     1    24    25    1
     2    25    26    1
     3    25     1    1
     4     1     2    1
     5     2     3    1
     6     3     4    1
     7     4     5   am
     8     5     6    2
     9     5     7   am
    10     7     8    1
    11     8     9    1
    12     9    10    1
    13    10    15    1
    14    15    16   am
    15    16    17    2
    16    16    19    1
    17    19    20    1
    18    20    21    1
    19    21    22    1
    20    22    23    1
    21    10    11    1
    22    11    12    1
    23     4    13    1
    24    13    14    1
    25    14     1    1
    26    12     7    1
    27    23    19    1
    28    15    18    1
@<TRIPOS>MOLECULE
*****
 26 28 0 0 0
SMALL
GASTEIGER

@<TRIPOS>ATOM
      1 N         141.9536  140.7062  166.6959 N.3     1  UNL1       -0.2711
      2 C         140.8949  141.5056  167.3958 C.3     1  UNL1        0.0939
      3 C         140.2265  142.6470  166.6883 C.3     1  UNL1        0.1123
      4 N         140.6169  142.9889  165.2810 N.am    1  UNL1       -0.2612
      5 C         139.9485  144.1303  164.5735 C.2     1  UNL1        0.3072
      6 O         138.8898  144.9298  165.2733 O.2     1  UNL1       -0.2523
      7 N         140.3389  144.4722  163.1661 N.am    1  UNL1       -0.2639
      8 C         141.3977  143.6727  162.4662 C.3     1  UNL1        0.0966
      9 C         141.7881  144.0146  161.0589 C.3     1  UNL1        0.0412
     10 C         141.1197  145.1560  160.3514 C.3     1  UNL1        0.0750
     11 C         140.0610  145.9555  161.0512 C.3     1  UNL1        0.0412
     12 C         139.6706  145.6136  162.4587 C.3     1  UNL1        0.0966
     13 C         141.6756  142.1894  164.5811 C.3     1  UNL1        0.1123
     14 C         142.3440  141.0481  165.2886 C.3     1  UNL1        0.0939
     15 N         141.5102  145.4979  158.9440 N.am    1  UNL1       -0.3059
     16 C         140.7817  144.8737  157.7909 C.2     1  UNL1        0.2219
     17 O         139.6627  143.9076  158.0451 O.2     1  UNL1       -0.2751
     18 H         142.2446  146.1320  158.7771 H       1  UNL1        0.1494
     19 C         141.1722  145.2156  156.3836 C.3     1  UNL1        0.0765
     20 C         140.5225  146.2521  155.5154 C.3     1  UNL1        0.0091
     21 C         141.2297  146.2581  154.1926 C.3     1  UNL1        0.0005
     22 C         142.3164  145.2253  154.2432 C.3     1  UNL1        0.0005
     23 C         142.2808  144.5811  155.5973 C.3     1  UNL1        0.0091
     24 C         142.5732  139.4783  168.9001 C.3     1  UNL1        0.0173
     25 C         142.6220  139.5648  167.4034 C.3     1  UNL1        0.0577
     26 C         143.3391  138.5099  166.6142 C.3     1  UNL1        0.0173
@<TRIPOS>BOND
     1    24    25    1
     2    25    26    1
     3    25     1    1
     4     1     2    1
     5     2     3    1
     6     3     4    1
     7     4     5   am
     8     5     6    2
     9     5     7   am
    10     7     8    1
    11     8     9    1
    12     9    10    1
    13    10    15    1
    14    15    16   am
    15    16    17    2
    16    16    19    1
    17    19    20    1
    18    20    21    1
    19    21    22    1
    20    22    23    1
    21    10    11    1
    22    11    12    1
    23     4    13    1
    24    13    14    1
    25    14     1    1
    26    12     7    1
    27    23    19    1
    28    15    18    1
@<TRIPOS>MOLECULE
*****
 26 28 0 0 0
SMALL
GASTEIGER

@<TRIPOS>ATOM
      1 N         139.8175  144.4472  157.6207 N.3     1  UNL1       -0.2711
      2 C         138.9605  143.3987  156.9757 C.3     1  UNL1        0.0939
      3 C         138.4388  142.2516  157.7893 C.3     1  UNL1        0.1123
      4 N         138.7741  142.1531  159.2480 N.am    1  UNL1       -0.2612
      5 C         138.2524  141.0060  160.0617 C.2     1  UNL1        0.3072
      6 O         137.3954  139.9574  159.4167 O.2     1  UNL1       -0.2523
      7 N         138.5878  140.9074  161.5204 N.am    1  UNL1       -0.2639
      8 C         139.4448  141.9559  162.1655 C.3     1  UNL1        0.0966
      9 C         139.7802  141.8574  163.6241 C.3     1  UNL1        0.0412
     10 C         139.2585  140.7103  164.4378 C.3     1  UNL1        0.0750
     11 C         138.4015  139.6618  163.7928 C.3     1  UNL1        0.0412
     12 C         138.0661  139.7603  162.3340 C.3     1  UNL1        0.0966
     13 C         139.6311  143.2016  159.8930 C.3     1  UNL1        0.1123
     14 C         140.1528  144.3487  159.0794 C.3     1  UNL1        0.0939
     15 N         139.5939  140.6117  165.8965 N.am    1  UNL1       -0.3059
     16 C         140.8572  139.9299  166.3313 C.2     1  UNL1        0.2219
     17 O         141.7852  139.3466  165.3073 O.2     1  UNL1       -0.2751
     18 H         138.9848  140.9946  166.5686 H       1  UNL1        0.1494
     19 C         141.1925  139.8314  167.7899 C.3     1  UNL1        0.0765
     20 C         140.2438  140.0563  168.9299 C.3     1  UNL1        0.0091
     21 C         141.0004  139.8546  170.2093 C.3     1  UNL1        0.0005
     22 C         142.4167  139.5050  169.8601 C.3     1  UNL1        0.0005
     23 C         142.5354  139.4907  168.3648 C.3     1  UNL1        0.0091
     24 C         141.8071  145.9026  156.8002 C.3     1  UNL1        0.0173
     25 C         140.3391  145.5943  156.8071 C.3     1  UNL1        0.0577
     26 C         139.3929  146.4331  156.0003 C.3     1  UNL1        0.0173
@<TRIPOS>BOND
     1    24    25    1
     2    25    26    1
     3    25     1    1
     4     1     2    1
     5     2     3    1
     6     3     4    1
     7     4     5   am
     8     5     6    2
     9     5     7   am
    10     7     8    1
    11     8     9    1
    12     9    10    1
    13    10    15    1
    14    15    16   am
    15    16    17    2
    16    16    19    1
    17    19    20    1
    18    20    21    1
    19    21    22    1
    20    22    23    1
    21    10    11    1
    22    11    12    1
    23     4    13    1
    24    13    14    1
    25    14     1    1
    26    12     7    1
    27    23    19    1
    28    15    18    1
@<TRIPOS>MOLECULE
*****
 26 28 0 0 0
SMALL
GASTEIGER

@<TRIPOS>ATOM
      1 N         142.8767  137.7861  157.5347 N.3     1  UNL1       -0.2711
      2 C         143.4176  138.9610  156.7751 C.3     1  UNL1        0.0939
      3 C         143.8310  140.2023  157.5086 C.3     1  UNL1        0.1123
      4 N         143.7035  140.2689  159.0017 N.am    1  UNL1       -0.2612
      5 C         144.1169  141.5103  159.7352 C.2     1  UNL1        0.3072
      6 O         144.6579  142.6851  158.9756 O.2     1  UNL1       -0.2523
      7 N         143.9894  141.5768  161.2282 N.am    1  UNL1       -0.2639
      8 C         143.4485  140.4018  161.9879 C.3     1  UNL1        0.0966
      9 C         143.3210  140.4683  163.4809 C.3     1  UNL1        0.0412
     10 C         143.7344  141.7097  164.2144 C.3     1  UNL1        0.0750
     11 C         144.2753  142.8846  163.4549 C.3     1  UNL1        0.0412
     12 C         144.4029  142.8182  161.9617 C.3     1  UNL1        0.0966
     13 C         143.1626  139.0940  159.7612 C.3     1  UNL1        0.1123
     14 C         142.7492  137.8526  159.0277 C.3     1  UNL1        0.0939
     15 N         143.6069  141.7762  165.7076 N.am    1  UNL1       -0.3059
     16 C         142.3881  142.3908  166.3296 C.2     1  UNL1        0.2219
     17 O         141.2969  142.9389  165.4585 O.2     1  UNL1       -0.2751
     18 H         144.3231  141.4165  166.2793 H       1  UNL1        0.1494
     19 C         142.2607  142.4572  167.8227 C.3     1  UNL1        0.0765
     20 C         140.9875  142.6544  168.5910 C.3     1  UNL1        0.0091
     21 C         141.3240  142.6572  170.0527 C.3     1  UNL1        0.0005
     22 C         142.8051  142.4617  170.1878 C.3     1  UNL1        0.0005
     23 C         143.3839  142.3381  168.8096 C.3     1  UNL1        0.0091
     24 C         141.1619  136.5121  156.0560 C.3     1  UNL1        0.0173
     25 C         142.4633  136.5447  156.8012 C.3     1  UNL1        0.0577
     26 C         143.3512  135.3358  156.8129 C.3     1  UNL1        0.0173
@<TRIPOS>BOND
     1    24    25    1
     2    25    26    1
     3    25     1    1
     4     1     2    1
     5     2     3    1
     6     3     4    1
     7     4     5   am
     8     5     6    2
     9     5     7   am
    10     7     8    1
    11     8     9    1
    12     9    10    1
    13    10    15    1
    14    15    16   am
    15    16    17    2
    16    16    19    1
    17    19    20    1
    18    20    21    1
    19    21    22    1
    20    22    23    1
    21    10    11    1
    22    11    12    1
    23     4    13    1
    24    13    14    1
    25    14     1    1
    26    12     7    1
    27    23    19    1
    28    15    18    1
@<TRIPOS>MOLECULE
*****
 26 28 0 0 0
SMALL
GASTEIGER

@<TRIPOS>ATOM
      1 N         140.2717  145.5591  156.7779 N.3     1  UNL1       -0.2711
      2 C         141.3688  144.9381  155.9650 C.3     1  UNL1        0.0939
      3 C         142.4605  144.1657  156.6445 C.3     1  UNL1        0.1123
      4 N         142.4550  144.0142  158.1368 N.am    1  UNL1       -0.2612
      5 C         143.5466  143.2417  158.8162 C.2     1  UNL1        0.3072
      6 O         144.6437  142.6207  158.0034 O.2     1  UNL1       -0.2523
      7 N         143.5411  143.0902  160.3085 N.am    1  UNL1       -0.2639
      8 C         142.4440  143.7112  161.1214 C.3     1  UNL1        0.0966
      9 C         142.4385  143.5597  162.6137 C.3     1  UNL1        0.0412
     10 C         143.5301  142.7872  163.2932 C.3     1  UNL1        0.0750
     11 C         144.6272  142.1662  162.4803 C.3     1  UNL1        0.0412
     12 C         144.6328  142.3177  160.9880 C.3     1  UNL1        0.0966
     13 C         141.3579  144.6351  158.9496 C.3     1  UNL1        0.1123
     14 C         140.2663  145.4076  158.2701 C.3     1  UNL1        0.0939
     15 N         143.5246  142.6357  164.7855 N.am    1  UNL1       -0.3059
     16 C         142.9060  141.4223  165.4139 C.2     1  UNL1        0.2219
     17 O         142.2928  140.3604  164.5500 O.2     1  UNL1       -0.2751
     18 H         143.9271  143.3327  165.3526 H       1  UNL1        0.1494
     19 C         142.9005  141.2709  166.9062 C.3     1  UNL1        0.0765
     20 C         142.5701  140.0194  167.6643 C.3     1  UNL1        0.0091
     21 C         142.6898  140.3194  169.1290 C.3     1  UNL1        0.0005
     22 C         143.0942  141.7564  169.2763 C.3     1  UNL1        0.0005
     23 C         143.2244  142.3444  167.9025 C.3     1  UNL1        0.0091
     24 C         138.2588  145.6406  155.1373 C.3     1  UNL1        0.0173
     25 C         139.1801  146.3315  156.0984 C.3     1  UNL1        0.0577
     26 C         139.0098  147.7949  156.3801 C.3     1  UNL1        0.0173
@<TRIPOS>BOND
     1    24    25    1
     2    25    26    1
     3    25     1    1
     4     1     2    1
     5     2     3    1
     6     3     4    1
     7     4     5   am
     8     5     6    2
     9     5     7   am
    10     7     8    1
    11     8     9    1
    12     9    10    1
    13    10    15    1
    14    15    16   am
    15    16    17    2
    16    16    19    1
    17    19    20    1
    18    20    21    1
    19    21    22    1
    20    22    23    1
    21    10    11    1
    22    11    12    1
    23     4    13    1
    24    13    14    1
    25    14     1    1
    26    12     7    1
    27    23    19    1
    28    15    18    1
@<TRIPOS>MOLECULE
*****
 26 28 0 0 0
SMALL
GASTEIGER

@<TRIPOS>ATOM
      1 N         140.3723  141.8810  168.4358 N.3     1  UNL1       -0.2711
      2 C         139.9472  140.4428  168.4132 C.3     1  UNL1        0.0939
      3 C         139.4708  139.8214  167.1338 C.3     1  UNL1        0.1123
      4 N         139.4195  140.6384  165.8769 N.am    1  UNL1       -0.2612
      5 C         138.9432  140.0170  164.5974 C.2     1  UNL1        0.3072
      6 O         138.5181  138.5787  164.5749 O.2     1  UNL1       -0.2523
      7 N         138.8919  140.8340  163.3405 N.am    1  UNL1       -0.2639
      8 C         139.3170  142.2723  163.3630 C.3     1  UNL1        0.0966
      9 C         139.2657  143.0893  162.1060 C.3     1  UNL1        0.0412
     10 C         138.7894  142.4679  160.8266 C.3     1  UNL1        0.0750
     11 C         138.3643  141.0296  160.8040 C.3     1  UNL1        0.0412
     12 C         138.4155  140.2126  162.0610 C.3     1  UNL1        0.0966
     13 C         139.8446  142.0767  165.8994 C.3     1  UNL1        0.1123
     14 C         140.3210  142.6980  167.1788 C.3     1  UNL1        0.0939
     15 N         138.7381  143.2850  159.5696 N.am    1  UNL1       -0.3059
     16 C         140.0097  143.6759  158.8768 C.2     1  UNL1        0.2219
     17 O         141.3327  143.2498  159.4409 O.2     1  UNL1       -0.2751
     18 H         137.8698  143.5646  159.1993 H       1  UNL1        0.1494
     19 C         139.9584  144.4929  157.6199 C.3     1  UNL1        0.0765
     20 C         140.3410  145.9376  157.4911 C.3     1  UNL1        0.0091
     21 C         140.1345  146.3462  156.0627 C.3     1  UNL1        0.0005
     22 C         139.6244  145.1540  155.3087 C.3     1  UNL1        0.0005
     23 C         139.5156  144.0086  156.2711 C.3     1  UNL1        0.0091
     24 C         141.5863  141.6719  170.7232 C.3     1  UNL1        0.0173
     25 C         140.8486  142.5024  169.7152 C.3     1  UNL1        0.0577
     26 C         140.5874  143.9543  169.9867 C.3     1  UNL1        0.0173
@<TRIPOS>BOND
     1    24    25    1
     2    25    26    1
     3    25     1    1
     4     1     2    1
     5     2     3    1
     6     3     4    1
     7     4     5   am
     8     5     6    2
     9     5     7   am
    10     7     8    1
    11     8     9    1
    12     9    10    1
    13    10    15    1
    14    15    16   am
    15    16    17    2
    16    16    19    1
    17    19    20    1
    18    20    21    1
    19    21    22    1
    20    22    23    1
    21    10    11    1
    22    11    12    1
    23     4    13    1
    24    13    14    1
    25    14     1    1
    26    12     7    1
    27    23    19    1
    28    15    18    1
@<TRIPOS>MOLECULE
*****
 26 28 0 0 0
SMALL
GASTEIGER

@<TRIPOS>ATOM
      1 N         140.0068  140.4660  167.4024 N.3     1  UNL1       -0.2711
      2 C         138.8810  139.5339  167.0650 C.3     1  UNL1        0.0939
      3 C         138.8157  138.8968  165.7087 C.3     1  UNL1        0.1123
      4 N         139.8761  139.1917  164.6896 N.am    1  UNL1       -0.2612
      5 C         139.8107  138.5545  163.3332 C.2     1  UNL1        0.3072
      6 O         138.6849  137.6224  162.9959 O.2     1  UNL1       -0.2523
      7 N         140.8711  138.8494  162.3142 N.am    1  UNL1       -0.2639
      8 C         141.9969  139.7815  162.6515 C.3     1  UNL1        0.0966
      9 C         143.0573  140.0764  161.6324 C.3     1  UNL1        0.0412
     10 C         142.9920  139.4392  160.2760 C.3     1  UNL1        0.0750
     11 C         141.8662  138.5071  159.9387 C.3     1  UNL1        0.0412
     12 C         140.8057  138.2122  160.9578 C.3     1  UNL1        0.0966
     13 C         141.0018  140.1237  165.0269 C.3     1  UNL1        0.1123
     14 C         141.0672  140.7609  166.3833 C.3     1  UNL1        0.0939
     15 N         144.0524  139.7341  159.2569 N.am    1  UNL1       -0.3059
     16 C         143.8247  140.7974  158.2238 C.2     1  UNL1        0.2219
     17 O         142.5366  141.5658  158.2096 O.2     1  UNL1       -0.2751
     18 H         144.8979  139.2298  159.2662 H       1  UNL1        0.1494
     19 C         144.8852  141.0923  157.2047 C.3     1  UNL1        0.0765
     20 C         145.1804  140.2797  155.9789 C.3     1  UNL1        0.0091
     21 C         146.3143  140.9367  155.2492 C.3     1  UNL1        0.0005
     22 C         146.7199  142.1555  156.0240 C.3     1  UNL1        0.0005
     23 C         145.8367  142.2516  157.2326 C.3     1  UNL1        0.0091
     24 C         139.7224  140.3054  169.9798 C.3     1  UNL1        0.0173
     25 C         140.0722  141.1032  168.7587 C.3     1  UNL1        0.0577
     26 C         140.4874  142.5382  168.8940 C.3     1  UNL1        0.0173
@<TRIPOS>BOND
     1    24    25    1
     2    25    26    1
     3    25     1    1
     4     1     2    1
     5     2     3    1
     6     3     4    1
     7     4     5   am
     8     5     6    2
     9     5     7   am
    10     7     8    1
    11     8     9    1
    12     9    10    1
    13    10    15    1
    14    15    16   am
    15    16    17    2
    16    16    19    1
    17    19    20    1
    18    20    21    1
    19    21    22    1
    20    22    23    1
    21    10    11    1
    22    11    12    1
    23     4    13    1
    24    13    14    1
    25    14     1    1
    26    12     7    1
    27    23    19    1
    28    15    18    1
