@<TRIPOS>MOLECULE
*****
 36 38 0 0 0
SMALL
GASTEIGER

@<TRIPOS>ATOM
      1 C         143.3542  138.8009  165.7452 C.ar    1  UNL1        0.0504
      2 C         144.6504  139.2791  165.1612 C.ar    1  UNL1        0.0147
      3 C         144.8612  139.2470  163.6764 C.ar    1  UNL1        0.0014
      4 C         143.7758  138.7368  162.7756 C.ar    1  UNL1        0.0043
      5 C         143.9866  138.7047  161.2909 C.ar    1  UNL1        0.0208
      6 C         142.9012  138.1945  160.3901 C.ar    1  UNL1        0.1003
      7 N         141.6049  137.7162  160.9741 N.ar    1  UNL1       -0.2291
      8 C         141.3941  137.7483  162.4588 C.ar    1  UNL1        0.1322
      9 C         142.4796  138.2586  163.3596 C.ar    1  UNL1        0.0330
     10 C         142.2688  138.2906  164.8444 C.ar    1  UNL1        0.0174
     11 C         142.3670  139.9548  167.8532 C.2     1  UNL1        0.2261
     12 O         141.8013  141.0448  166.9916 O.2     1  UNL1       -0.2748
     13 N         143.1434  138.8329  167.2299 N.am    1  UNL1       -0.2839
     14 H         143.5146  138.1176  167.7954 H       1  UNL1        0.1549
     15 C         142.1562  139.9869  169.3379 C.3     1  UNL1        0.0854
     16 C         140.8080  139.6644  169.9112 C.3     1  UNL1        0.0096
     17 C         139.5952  140.4118  169.4419 C.3     1  UNL1        0.0005
     18 C         138.3548  140.4337  170.2851 C.3     1  UNL1        0.0005
     19 C         137.5171  139.1967  170.4192 C.3     1  UNL1        0.0096
     20 C         136.3281  139.1916  171.3337 C.3     1  UNL1        0.0871
     21 O         136.6150  136.6349  171.6957 O.2     1  UNL1       -0.2730
     22 C         135.9010  137.9182  172.0016 C.2     1  UNL1        0.2443
     23 N         134.7601  137.9281  172.9753 N.am    1  UNL1       -0.1970
     24 O         134.3331  136.6547  173.6432 O.3     1  UNL1       -0.2952
     25 H         134.2916  138.7703  173.1761 H       1  UNL1        0.1822
     26 H         134.8939  135.9250  173.3367 H       1  UNL1        0.2414
     27 N         140.0978  137.2700  163.0428 N.pl3   1  UNL1       -0.2962
     28 H         139.7239  136.4023  162.7665 H       1  UNL1        0.1537
     29 C         139.3714  138.1140  164.0479 C.ar    1  UNL1        0.0780
     30 C         138.9332  137.5166  165.3521 C.ar    1  UNL1        0.0170
     31 C         138.2067  138.3605  166.3571 C.ar    1  UNL1        0.0023
     32 C         137.9185  139.8018  166.0579 C.ar    1  UNL1        0.0138
     33 C         138.3568  140.3992  164.7537 C.ar    1  UNL1        0.0863
     34 CL        138.0686  141.8405  164.4545 Cl      1  UNL1       -0.0799
     35 C         139.0832  139.5553  163.7487 C.ar    1  UNL1        0.1639
     36 F         139.5215  140.1527  162.4444 F       1  UNL1       -0.2020
@<TRIPOS>BOND
     1    21    22    2
     2    22    20    1
     3    20    19    1
     4    19    18    1
     5    18    17    1
     6    17    16    1
     7    16    15    1
     8    15    11    1
     9    11    12    2
    10    11    13   am
    11    13     1    1
    12     1     2   ar
    13     2     3   ar
    14     3     4   ar
    15     4     5   ar
    16     5     6   ar
    17     6     7   ar
    18     7     8   ar
    19     8    27    1
    20    27    29    1
    21    29    30   ar
    22    30    31   ar
    23    31    32   ar
    24    32    33   ar
    25    33    34    1
    26    33    35   ar
    27    35    36    1
    28     8     9   ar
    29     9    10   ar
    30    22    23   am
    31    23    24    1
    32    10     1   ar
    33     9     4   ar
    34    35    29   ar
    35    13    14    1
    36    27    28    1
    37    23    25    1
    38    24    26    1
@<TRIPOS>MOLECULE
*****
 36 38 0 0 0
SMALL
GASTEIGER

@<TRIPOS>ATOM
      1 C         142.0893  138.8911  163.8671 C.ar    1  UNL1        0.0504
      2 C         141.5459  137.5729  163.4016 C.ar    1  UNL1        0.0147
      3 C         140.2976  137.0159  164.0194 C.ar    1  UNL1        0.0014
      4 C         139.5929  137.7771  165.1028 C.ar    1  UNL1        0.0043
      5 C         138.3447  137.2202  165.7206 C.ar    1  UNL1        0.0208
      6 C         137.6399  137.9814  166.8040 C.ar    1  UNL1        0.1003
      7 N         138.1834  139.2998  167.2696 N.ar    1  UNL1       -0.2291
      8 C         139.4316  139.8568  166.6517 C.ar    1  UNL1        0.1322
      9 C         140.1363  139.0954  165.5683 C.ar    1  UNL1        0.0330
     10 C         141.3846  139.6524  164.9505 C.ar    1  UNL1        0.0174
     11 C         143.2449  140.5439  162.2292 C.2     1  UNL1        0.2261
     12 O         141.9041  141.0828  161.8269 O.2     1  UNL1       -0.2748
     13 N         143.3375  139.4481  163.2493 N.am    1  UNL1       -0.2839
     14 H         144.2176  139.0945  163.5133 H       1  UNL1        0.1549
     15 C         144.4931  141.1009  161.6113 C.3     1  UNL1        0.0854
     16 C         145.3280  142.0903  162.3691 C.3     1  UNL1        0.0096
     17 C         145.5536  141.9097  163.8410 C.3     1  UNL1        0.0005
     18 C         144.9012  142.8408  164.8195 C.3     1  UNL1        0.0005
     19 C         143.5349  143.3906  164.5352 C.3     1  UNL1        0.0096
     20 C         143.3761  144.8179  164.1019 C.3     1  UNL1        0.0871
     21 O         142.6020  144.5442  161.6369 O.2     1  UNL1       -0.2730
     22 C         142.4281  145.1637  162.9920 C.2     1  UNL1        0.2443
     23 N         141.3064  146.1288  163.2371 N.am    1  UNL1       -0.1970
     24 O         140.3584  146.4746  162.1272 O.3     1  UNL1       -0.2952
     25 H         141.1923  146.5354  164.1264 H       1  UNL1        0.1822
     26 H         140.6101  145.9913  161.3247 H       1  UNL1        0.2414
     27 N         139.9750  141.1750  167.1173 N.pl3   1  UNL1       -0.2962
     28 H         139.8914  141.9717  166.5449 H       1  UNL1        0.1537
     29 C         140.6460  141.2795  168.4548 C.ar    1  UNL1        0.0780
     30 C         139.9221  140.8410  169.6932 C.ar    1  UNL1        0.0170
     31 C         140.5930  140.9455  171.0307 C.ar    1  UNL1        0.0023
     32 C         141.9878  141.4885  171.1298 C.ar    1  UNL1        0.0138
     33 C         142.7116  141.9270  169.8914 C.ar    1  UNL1        0.0863
     34 CL        144.1064  142.4700  169.9904 Cl      1  UNL1       -0.0799
     35 C         142.0407  141.8225  168.5539 C.ar    1  UNL1        0.1639
     36 F         142.7646  142.2610  167.3154 F       1  UNL1       -0.2020
@<TRIPOS>BOND
     1    21    22    2
     2    22    20    1
     3    20    19    1
     4    19    18    1
     5    18    17    1
     6    17    16    1
     7    16    15    1
     8    15    11    1
     9    11    12    2
    10    11    13   am
    11    13     1    1
    12     1     2   ar
    13     2     3   ar
    14     3     4   ar
    15     4     5   ar
    16     5     6   ar
    17     6     7   ar
    18     7     8   ar
    19     8    27    1
    20    27    29    1
    21    29    30   ar
    22    30    31   ar
    23    31    32   ar
    24    32    33   ar
    25    33    34    1
    26    33    35   ar
    27    35    36    1
    28     8     9   ar
    29     9    10   ar
    30    22    23   am
    31    23    24    1
    32    10     1   ar
    33     9     4   ar
    34    35    29   ar
    35    13    14    1
    36    27    28    1
    37    23    25    1
    38    24    26    1
@<TRIPOS>MOLECULE
*****
 36 38 0 0 0
SMALL
GASTEIGER

@<TRIPOS>ATOM
      1 C         142.8096  142.7422  164.1346 C.ar    1  UNL1        0.0504
      2 C         143.5118  143.8487  163.4047 C.ar    1  UNL1        0.0147
      3 C         142.7150  144.8994  162.6898 C.ar    1  UNL1        0.0014
      4 C         141.2161  144.8437  162.7047 C.ar    1  UNL1        0.0043
      5 C         140.4194  145.8945  161.9898 C.ar    1  UNL1        0.0208
      6 C         138.9205  145.8388  162.0048 C.ar    1  UNL1        0.1003
      7 N         138.2183  144.7323  162.7347 N.ar    1  UNL1       -0.2291
      8 C         139.0151  143.6816  163.4496 C.ar    1  UNL1        0.1322
      9 C         140.5140  143.7373  163.4346 C.ar    1  UNL1        0.0330
     10 C         141.3108  142.6865  164.1496 C.ar    1  UNL1        0.0174
     11 C         144.1916  140.5428  164.0827 C.2     1  UNL1        0.2261
     12 O         143.9802  140.4449  162.6009 O.2     1  UNL1       -0.2748
     13 N         143.6064  141.6915  164.8495 N.am    1  UNL1       -0.2839
     14 H         143.7452  141.7558  165.8221 H       1  UNL1        0.1549
     15 C         144.9884  139.4921  164.7977 C.3     1  UNL1        0.0854
     16 C         144.2896  138.4566  165.6281 C.3     1  UNL1        0.0096
     17 C         142.7943  138.3456  165.5861 C.3     1  UNL1        0.0005
     18 C         141.9565  139.1318  166.5505 C.3     1  UNL1        0.0005
     19 C         142.4836  139.4454  167.9193 C.3     1  UNL1        0.0096
     20 C         141.7626  140.4281  168.7937 C.3     1  UNL1        0.0871
     21 O         139.1824  140.2015  168.9976 O.2     1  UNL1       -0.2730
     22 C         140.5538  139.9956  169.5695 C.2     1  UNL1        0.2443
     23 N         140.7163  139.3573  170.9171 N.am    1  UNL1       -0.1970
     24 O         139.5075  138.9249  171.6929 O.3     1  UNL1       -0.2952
     25 H         141.6164  139.2222  171.2924 H       1  UNL1        0.1822
     26 H         138.7070  139.1288  171.1844 H       1  UNL1        0.2414
     27 N         138.3130  142.5751  164.1795 N.pl3   1  UNL1       -0.2962
     28 H         137.8694  142.7566  165.0395 H       1  UNL1        0.1537
     29 C         138.2867  141.1921  163.5992 C.ar    1  UNL1        0.0780
     30 C         137.8555  140.9834  162.1777 C.ar    1  UNL1        0.0170
     31 C         137.8293  139.6005  161.5974 C.ar    1  UNL1        0.0023
     32 C         138.2341  138.4263  162.4386 C.ar    1  UNL1        0.0138
     33 C         138.6652  138.6351  163.8600 C.ar    1  UNL1        0.0863
     34 CL        139.0700  137.4609  164.7011 Cl      1  UNL1       -0.0799
     35 C         138.6915  140.0180  164.4403 C.ar    1  UNL1        0.1639
     36 F         139.1226  140.2268  165.8618 F       1  UNL1       -0.2020
@<TRIPOS>BOND
     1    21    22    2
     2    22    20    1
     3    20    19    1
     4    19    18    1
     5    18    17    1
     6    17    16    1
     7    16    15    1
     8    15    11    1
     9    11    12    2
    10    11    13   am
    11    13     1    1
    12     1     2   ar
    13     2     3   ar
    14     3     4   ar
    15     4     5   ar
    16     5     6   ar
    17     6     7   ar
    18     7     8   ar
    19     8    27    1
    20    27    29    1
    21    29    30   ar
    22    30    31   ar
    23    31    32   ar
    24    32    33   ar
    25    33    34    1
    26    33    35   ar
    27    35    36    1
    28     8     9   ar
    29     9    10   ar
    30    22    23   am
    31    23    24    1
    32    10     1   ar
    33     9     4   ar
    34    35    29   ar
    35    13    14    1
    36    27    28    1
    37    23    25    1
    38    24    26    1
@<TRIPOS>MOLECULE
*****
 36 38 0 0 0
SMALL
GASTEIGER

@<TRIPOS>ATOM
      1 C         138.1659  141.8552  163.9682 C.ar    1  UNL1        0.0504
      2 C         137.5932  143.1406  164.4874 C.ar    1  UNL1        0.0147
      3 C         138.0155  144.4476  163.8844 C.ar    1  UNL1        0.0014
      4 C         139.0105  144.4691  162.7622 C.ar    1  UNL1        0.0043
      5 C         139.4328  145.7760  162.1592 C.ar    1  UNL1        0.0208
      6 C         140.4278  145.7975  161.0369 C.ar    1  UNL1        0.1003
      7 N         141.0006  144.5120  160.5176 N.ar    1  UNL1       -0.2291
      8 C         140.5783  143.2051  161.1206 C.ar    1  UNL1        0.1322
      9 C         139.5832  143.1836  162.2429 C.ar    1  UNL1        0.0330
     10 C         139.1609  141.8767  162.8459 C.ar    1  UNL1        0.0174
     11 C         138.4851  139.9919  165.7504 C.2     1  UNL1        0.2261
     12 O         139.6490  140.7425  166.3267 O.2     1  UNL1       -0.2748
     13 N         137.7436  140.5483  164.5711 N.am    1  UNL1       -0.2839
     14 H         136.9797  140.0556  164.1929 H       1  UNL1        0.1549
     15 C         138.0628  138.6850  166.3534 C.3     1  UNL1        0.0854
     16 C         138.5892  137.3963  165.7946 C.3     1  UNL1        0.0096
     17 C         139.3064  137.3875  164.4772 C.3     1  UNL1        0.0005
     18 C         140.7959  137.2157  164.4352 C.3     1  UNL1        0.0005
     19 C         141.6938  138.3871  164.7029 C.3     1  UNL1        0.0096
     20 C         142.7905  138.2744  165.7201 C.3     1  UNL1        0.0871
     21 O         143.1634  138.8361  168.2292 O.2     1  UNL1       -0.2730
     22 C         142.8972  139.2854  166.8230 C.2     1  UNL1        0.2443
     23 N         142.7377  140.7458  166.5198 N.am    1  UNL1       -0.1970
     24 O         142.8444  141.7568  167.6227 O.3     1  UNL1       -0.2952
     25 H         142.5630  141.0406  165.5969 H       1  UNL1        0.1822
     26 H         143.0173  141.3026  168.4621 H       1  UNL1        0.2414
     27 N         141.1509  141.9197  160.6014 N.pl3   1  UNL1       -0.2962
     28 H         140.7945  141.5202  159.7751 H       1  UNL1        0.1537
     29 C         142.2667  141.2428  161.3410 C.ar    1  UNL1        0.0780
     30 C         143.0302  141.9899  162.3940 C.ar    1  UNL1        0.0170
     31 C         144.1459  141.3130  163.1335 C.ar    1  UNL1        0.0023
     32 C         144.4981  139.8890  162.8201 C.ar    1  UNL1        0.0138
     33 C         143.7346  139.1419  161.7671 C.ar    1  UNL1        0.0863
     34 CL        144.0868  137.7179  161.4537 Cl      1  UNL1       -0.0799
     35 C         142.6189  139.8188  161.0276 C.ar    1  UNL1        0.1639
     36 F         141.8553  139.0717  159.9745 F       1  UNL1       -0.2020
@<TRIPOS>BOND
     1    21    22    2
     2    22    20    1
     3    20    19    1
     4    19    18    1
     5    18    17    1
     6    17    16    1
     7    16    15    1
     8    15    11    1
     9    11    12    2
    10    11    13   am
    11    13     1    1
    12     1     2   ar
    13     2     3   ar
    14     3     4   ar
    15     4     5   ar
    16     5     6   ar
    17     6     7   ar
    18     7     8   ar
    19     8    27    1
    20    27    29    1
    21    29    30   ar
    22    30    31   ar
    23    31    32   ar
    24    32    33   ar
    25    33    34    1
    26    33    35   ar
    27    35    36    1
    28     8     9   ar
    29     9    10   ar
    30    22    23   am
    31    23    24    1
    32    10     1   ar
    33     9     4   ar
    34    35    29   ar
    35    13    14    1
    36    27    28    1
    37    23    25    1
    38    24    26    1
@<TRIPOS>MOLECULE
*****
 36 38 0 0 0
SMALL
GASTEIGER

@<TRIPOS>ATOM
      1 C         140.8670  139.9906  165.8010 C.ar    1  UNL1        0.0504
      2 C         139.3804  140.0253  165.9982 C.ar    1  UNL1        0.0147
      3 C         138.4688  139.5196  164.9197 C.ar    1  UNL1        0.0014
      4 C         139.0436  138.9791  163.6441 C.ar    1  UNL1        0.0043
      5 C         138.1320  138.4733  162.5656 C.ar    1  UNL1        0.0208
      6 C         138.7069  137.9328  161.2899 C.ar    1  UNL1        0.1003
      7 N         140.1935  137.8981  161.0927 N.ar    1  UNL1       -0.2291
      8 C         141.1052  138.4038  162.1712 C.ar    1  UNL1        0.1322
      9 C         140.5302  138.9443  163.4469 C.ar    1  UNL1        0.0330
     10 C         141.4419  139.4501  164.5253 C.ar    1  UNL1        0.0174
     11 C         142.1283  141.9535  166.9437 C.2     1  UNL1        0.2261
     12 O         141.5663  142.9051  165.9294 O.2     1  UNL1       -0.2748
     13 N         141.7786  140.4963  166.8795 N.am    1  UNL1       -0.2839
     14 H         142.1475  139.8718  167.5452 H       1  UNL1        0.1549
     15 C         143.0400  142.4593  168.0221 C.3     1  UNL1        0.0854
     16 C         142.5043  142.7094  169.4008 C.3     1  UNL1        0.0096
     17 C         141.0937  143.1861  169.5822 C.3     1  UNL1        0.0005
     18 C         140.0001  142.2005  169.8695 C.3     1  UNL1        0.0005
     19 C         140.2967  140.9601  170.6592 C.3     1  UNL1        0.0096
     20 C         140.8478  139.7467  169.9708 C.3     1  UNL1        0.0871
     21 O         143.0096  138.6483  169.0378 O.2     1  UNL1       -0.2730
     22 C         142.2949  139.3858  170.1312 C.2     1  UNL1        0.2443
     23 N         143.0273  139.7625  171.3848 N.am    1  UNL1       -0.1970
     24 O         144.4744  139.4016  171.5452 O.3     1  UNL1       -0.2952
     25 H         142.5582  140.2465  172.1024 H       1  UNL1        0.1822
     26 H         144.7801  138.9317  170.7536 H       1  UNL1        0.2414
     27 N         142.5917  138.3691  161.9740 N.pl3   1  UNL1       -0.2962
     28 H         143.0666  137.5068  161.9618 H       1  UNL1        0.1537
     29 C         143.3547  139.6482  161.7953 C.ar    1  UNL1        0.0780
     30 C         143.0941  140.5162  160.6001 C.ar    1  UNL1        0.0170
     31 C         143.8571  141.7952  160.4215 C.ar    1  UNL1        0.0023
     32 C         144.8807  142.2062  161.4381 C.ar    1  UNL1        0.0138
     33 C         145.1413  141.3381  162.6333 C.ar    1  UNL1        0.0863
     34 CL        146.1648  141.7491  163.6499 Cl      1  UNL1       -0.0799
     35 C         144.3783  140.0591  162.8119 C.ar    1  UNL1        0.1639
     36 F         144.6388  139.1910  164.0072 F       1  UNL1       -0.2020
@<TRIPOS>BOND
     1    21    22    2
     2    22    20    1
     3    20    19    1
     4    19    18    1
     5    18    17    1
     6    17    16    1
     7    16    15    1
     8    15    11    1
     9    11    12    2
    10    11    13   am
    11    13     1    1
    12     1     2   ar
    13     2     3   ar
    14     3     4   ar
    15     4     5   ar
    16     5     6   ar
    17     6     7   ar
    18     7     8   ar
    19     8    27    1
    20    27    29    1
    21    29    30   ar
    22    30    31   ar
    23    31    32   ar
    24    32    33   ar
    25    33    34    1
    26    33    35   ar
    27    35    36    1
    28     8     9   ar
    29     9    10   ar
    30    22    23   am
    31    23    24    1
    32    10     1   ar
    33     9     4   ar
    34    35    29   ar
    35    13    14    1
    36    27    28    1
    37    23    25    1
    38    24    26    1
@<TRIPOS>MOLECULE
*****
 36 38 0 0 0
SMALL
GASTEIGER

@<TRIPOS>ATOM
      1 C         139.0001  138.6981  165.3263 C.ar    1  UNL1        0.0504
      2 C         137.9573  138.3096  166.3321 C.ar    1  UNL1        0.0147
      3 C         137.9986  138.8863  167.7162 C.ar    1  UNL1        0.0014
      4 C         139.0827  139.8515  168.0944 C.ar    1  UNL1        0.0043
      5 C         139.1240  140.4282  169.4785 C.ar    1  UNL1        0.0208
      6 C         140.2081  141.3934  169.8568 C.ar    1  UNL1        0.1003
      7 N         141.2510  141.7819  168.8509 N.ar    1  UNL1       -0.2291
      8 C         141.2096  141.2052  167.4668 C.ar    1  UNL1        0.1322
      9 C         140.1255  140.2400  167.0886 C.ar    1  UNL1        0.0330
     10 C         140.0841  139.6632  165.7045 C.ar    1  UNL1        0.0174
     11 C         138.2969  138.8825  162.8320 C.2     1  UNL1        0.2261
     12 O         137.6764  140.2204  163.1058 O.2     1  UNL1       -0.2748
     13 N         138.9587  138.1213  163.9422 N.am    1  UNL1       -0.2839
     14 H         139.3660  137.2432  163.7624 H       1  UNL1        0.1549
     15 C         138.2556  138.3057  161.4479 C.3     1  UNL1        0.0854
     16 C         139.4948  138.2945  160.6027 C.3     1  UNL1        0.0096
     17 C         140.5115  139.3879  160.7479 C.3     1  UNL1        0.0005
     18 C         141.8558  139.2533  160.0963 C.3     1  UNL1        0.0005
     19 C         142.6898  138.0311  160.3428 C.3     1  UNL1        0.0096
     20 C         143.7160  138.0316  161.4369 C.3     1  UNL1        0.0871
     21 O         142.0528  137.7964  163.4189 O.2     1  UNL1       -0.2730
     22 C         143.3139  138.3684  162.8422 C.2     1  UNL1        0.2443
     23 N         144.1728  139.2772  163.6707 N.am    1  UNL1       -0.1970
     24 O         143.7706  139.6140  165.0759 O.3     1  UNL1       -0.2952
     25 H         145.0004  139.6525  163.2921 H       1  UNL1        0.1822
     26 H         142.9377  139.1654  165.2902 H       1  UNL1        0.2414
     27 N         142.2524  141.5937  166.4610 N.pl3   1  UNL1       -0.2962
     28 H         143.0957  141.0887  166.4062 H       1  UNL1        0.1537
     29 C         142.0103  142.7517  165.5387 C.ar    1  UNL1        0.0780
     30 C         140.6306  143.3234  165.3989 C.ar    1  UNL1        0.0170
     31 C         140.3886  144.4813  164.4767 C.ar    1  UNL1        0.0023
     32 C         141.5262  145.0675  163.6943 C.ar    1  UNL1        0.0138
     33 C         142.9059  144.4958  163.8341 C.ar    1  UNL1        0.0863
     34 CL        144.0435  145.0820  163.0517 Cl      1  UNL1       -0.0799
     35 C         143.1479  143.3379  164.7563 C.ar    1  UNL1        0.1639
     36 F         144.5276  142.7661  164.8962 F       1  UNL1       -0.2020
@<TRIPOS>BOND
     1    21    22    2
     2    22    20    1
     3    20    19    1
     4    19    18    1
     5    18    17    1
     6    17    16    1
     7    16    15    1
     8    15    11    1
     9    11    12    2
    10    11    13   am
    11    13     1    1
    12     1     2   ar
    13     2     3   ar
    14     3     4   ar
    15     4     5   ar
    16     5     6   ar
    17     6     7   ar
    18     7     8   ar
    19     8    27    1
    20    27    29    1
    21    29    30   ar
    22    30    31   ar
    23    31    32   ar
    24    32    33   ar
    25    33    34    1
    26    33    35   ar
    27    35    36    1
    28     8     9   ar
    29     9    10   ar
    30    22    23   am
    31    23    24    1
    32    10     1   ar
    33     9     4   ar
    34    35    29   ar
    35    13    14    1
    36    27    28    1
    37    23    25    1
    38    24    26    1
@<TRIPOS>MOLECULE
*****
 36 38 0 0 0
SMALL
GASTEIGER

@<TRIPOS>ATOM
      1 C         141.7205  139.4653  163.0316 C.ar    1  UNL1        0.0504
      2 C         141.3846  138.0475  162.6751 C.ar    1  UNL1        0.0147
      3 C         140.3529  137.2995  163.4663 C.ar    1  UNL1        0.0014
      4 C         139.6571  137.9692  164.6140 C.ar    1  UNL1        0.0043
      5 C         138.6254  137.2211  165.4052 C.ar    1  UNL1        0.0208
      6 C         137.9296  137.8908  166.5529 C.ar    1  UNL1        0.1003
      7 N         138.2654  139.3086  166.9095 N.ar    1  UNL1       -0.2291
      8 C         139.2971  140.0567  166.1183 C.ar    1  UNL1        0.1322
      9 C         139.9929  139.3869  164.9705 C.ar    1  UNL1        0.0330
     10 C         141.0246  140.1350  164.1793 C.ar    1  UNL1        0.0174
     11 C         143.9647  140.7699  162.9258 C.2     1  UNL1        0.2261
     12 O         144.1456  140.5784  164.4025 O.2     1  UNL1       -0.2748
     13 N         142.7521  140.2133  162.2404 N.am    1  UNL1       -0.2839
     14 H         142.6334  140.3390  161.2712 H       1  UNL1        0.1549
     15 C         144.9964  141.5180  162.1346 C.3     1  UNL1        0.0854
     16 C         144.7288  142.9274  161.6964 C.3     1  UNL1        0.0096
     17 C         143.5162  143.6522  162.2006 C.3     1  UNL1        0.0005
     18 C         143.6711  144.8020  163.1513 C.3     1  UNL1        0.0005
     19 C         142.5091  145.2422  163.9916 C.3     1  UNL1        0.0096
     20 C         141.1940  144.5282  163.8859 C.3     1  UNL1        0.0871
     21 O         138.6901  144.5743  163.1944 O.2     1  UNL1       -0.2730
     22 C         140.0813  145.1222  163.0741 C.2     1  UNL1        0.2443
     23 N         140.3598  146.2639  162.1419 N.am    1  UNL1       -0.1970
     24 O         139.2471  146.8578  161.3301 O.3     1  UNL1       -0.2952
     25 H         141.2729  146.6234  162.0629 H       1  UNL1        0.1822
     26 H         138.4195  146.3911  161.5255 H       1  UNL1        0.2414
     27 N         139.6330  141.4744  166.4748 N.pl3   1  UNL1       -0.2962
     28 H         139.0891  142.2137  166.1184 H       1  UNL1        0.1537
     29 C         140.7975  141.7659  167.3742 C.ar    1  UNL1        0.0780
     30 C         142.1109  142.1901  166.7870 C.ar    1  UNL1        0.0170
     31 C         143.2754  142.4816  167.6865 C.ar    1  UNL1        0.0023
     32 C         143.1264  142.3488  169.1731 C.ar    1  UNL1        0.0138
     33 C         141.8130  141.9247  169.7604 C.ar    1  UNL1        0.0863
     34 CL        141.6640  141.7919  171.2470 Cl      1  UNL1       -0.0799
     35 C         140.6485  141.6332  168.8609 C.ar    1  UNL1        0.1639
     36 F         139.3350  141.2090  169.4481 F       1  UNL1       -0.2020
@<TRIPOS>BOND
     1    21    22    2
     2    22    20    1
     3    20    19    1
     4    19    18    1
     5    18    17    1
     6    17    16    1
     7    16    15    1
     8    15    11    1
     9    11    12    2
    10    11    13   am
    11    13     1    1
    12     1     2   ar
    13     2     3   ar
    14     3     4   ar
    15     4     5   ar
    16     5     6   ar
    17     6     7   ar
    18     7     8   ar
    19     8    27    1
    20    27    29    1
    21    29    30   ar
    22    30    31   ar
    23    31    32   ar
    24    32    33   ar
    25    33    34    1
    26    33    35   ar
    27    35    36    1
    28     8     9   ar
    29     9    10   ar
    30    22    23   am
    31    23    24    1
    32    10     1   ar
    33     9     4   ar
    34    35    29   ar
    35    13    14    1
    36    27    28    1
    37    23    25    1
    38    24    26    1
@<TRIPOS>MOLECULE
*****
 36 38 0 0 0
SMALL
GASTEIGER

@<TRIPOS>ATOM
      1 C         140.0960  138.1377  162.2783 C.ar    1  UNL1        0.0504
      2 C         139.1805  138.0608  161.0927 C.ar    1  UNL1        0.0147
      3 C         139.7010  138.3757  159.7215 C.ar    1  UNL1        0.0014
      4 C         141.1370  138.7674  159.5361 C.ar    1  UNL1        0.0043
      5 C         141.6574  139.0823  158.1649 C.ar    1  UNL1        0.0208
      6 C         143.0934  139.4740  157.9795 C.ar    1  UNL1        0.1003
      7 N         144.0090  139.5509  159.1652 N.ar    1  UNL1       -0.2291
      8 C         143.4886  139.2360  160.5363 C.ar    1  UNL1        0.1322
      9 C         142.0525  138.8443  160.7217 C.ar    1  UNL1        0.0330
     10 C         141.5320  138.5294  162.0929 C.ar    1  UNL1        0.0174
     11 C         138.9741  138.9090  164.4911 C.2     1  UNL1        0.2261
     12 O         138.8931  140.3102  163.9616 O.2     1  UNL1       -0.2748
     13 N         139.5756  137.8228  163.6494 N.am    1  UNL1       -0.2839
     14 H         139.6287  136.9032  163.9970 H       1  UNL1        0.1549
     15 C         138.4537  138.5941  165.8622 C.3     1  UNL1        0.0854
     16 C         138.8068  139.4799  167.0202 C.3     1  UNL1        0.0096
     17 C         140.1957  140.0326  167.1454 C.3     1  UNL1        0.0005
     18 C         140.4093  141.4005  167.7224 C.3     1  UNL1        0.0005
     19 C         141.7144  141.7426  168.3780 C.3     1  UNL1        0.0096
     20 C         142.1322  141.0336  169.6322 C.3     1  UNL1        0.0871
     21 O         140.6632  141.6951  171.6704 O.2     1  UNL1       -0.2730
     22 C         141.1076  140.6729  170.6666 C.2     1  UNL1        0.2443
     23 N         140.5274  139.2900  170.6972 N.am    1  UNL1       -0.1970
     24 O         139.5028  138.9292  171.7316 O.3     1  UNL1       -0.2952
     25 H         140.8191  138.6191  170.0383 H       1  UNL1        0.1822
     26 H         139.3297  139.6980  172.2971 H       1  UNL1        0.2414
     27 N         144.4041  139.3128  161.7220 N.pl3   1  UNL1       -0.2962
     28 H         145.1004  138.6290  161.8514 H       1  UNL1        0.1537
     29 C         144.2587  140.4316  162.7106 C.ar    1  UNL1        0.0780
     30 C         144.0028  140.1262  164.1566 C.ar    1  UNL1        0.0170
     31 C         143.8575  141.2449  165.1451 C.ar    1  UNL1        0.0023
     32 C         143.9680  142.6692  164.6876 C.ar    1  UNL1        0.0138
     33 C         144.2239  142.9746  163.2415 C.ar    1  UNL1        0.0863
     34 CL        144.3345  144.3988  162.7839 Cl      1  UNL1       -0.0799
     35 C         144.3693  141.8559  162.2530 C.ar    1  UNL1        0.1639
     36 F         144.6252  142.1613  160.8068 F       1  UNL1       -0.2020
@<TRIPOS>BOND
     1    21    22    2
     2    22    20    1
     3    20    19    1
     4    19    18    1
     5    18    17    1
     6    17    16    1
     7    16    15    1
     8    15    11    1
     9    11    12    2
    10    11    13   am
    11    13     1    1
    12     1     2   ar
    13     2     3   ar
    14     3     4   ar
    15     4     5   ar
    16     5     6   ar
    17     6     7   ar
    18     7     8   ar
    19     8    27    1
    20    27    29    1
    21    29    30   ar
    22    30    31   ar
    23    31    32   ar
    24    32    33   ar
    25    33    34    1
    26    33    35   ar
    27    35    36    1
    28     8     9   ar
    29     9    10   ar
    30    22    23   am
    31    23    24    1
    32    10     1   ar
    33     9     4   ar
    34    35    29   ar
    35    13    14    1
    36    27    28    1
    37    23    25    1
    38    24    26    1
@<TRIPOS>MOLECULE
*****
 36 38 0 0 0
SMALL
GASTEIGER

@<TRIPOS>ATOM
      1 C         138.9161  142.1939  162.3652 C.ar    1  UNL1        0.0504
      2 C         138.1466  141.6763  161.1863 C.ar    1  UNL1        0.0147
      3 C         138.5616  142.0539  159.7952 C.ar    1  UNL1        0.0014
      4 C         139.7463  142.9492  159.5830 C.ar    1  UNL1        0.0043
      5 C         140.1614  143.3269  158.1920 C.ar    1  UNL1        0.0208
      6 C         141.3460  144.2221  157.9798 C.ar    1  UNL1        0.1003
      7 N         142.1156  144.7398  159.1587 N.ar    1  UNL1       -0.2291
      8 C         141.7005  144.3622  160.5497 C.ar    1  UNL1        0.1322
      9 C         140.5158  143.4668  160.7619 C.ar    1  UNL1        0.0330
     10 C         140.1007  143.0892  162.1530 C.ar    1  UNL1        0.0174
     11 C         139.0121  140.5482  164.3732 C.2     1  UNL1        0.2261
     12 O         139.9383  139.6576  163.5991 O.2     1  UNL1       -0.2748
     13 N         138.5010  141.8163  163.7563 N.am    1  UNL1       -0.2839
     14 H         137.8932  142.4007  164.2643 H       1  UNL1        0.1549
     15 C         138.5970  140.1705  165.7643 C.3     1  UNL1        0.0854
     16 C         139.5738  140.2886  166.8965 C.3     1  UNL1        0.0096
     17 C         140.6624  141.3192  166.8436 C.3     1  UNL1        0.0005
     18 C         140.4525  142.6648  167.4724 C.3     1  UNL1        0.0005
     19 C         140.7153  142.8576  168.9365 C.3     1  UNL1        0.0096
     20 C         142.1030  142.6831  169.4788 C.3     1  UNL1        0.0871
     21 O         141.4705  141.5116  171.7099 O.2     1  UNL1       -0.2730
     22 C         142.3753  141.6384  170.5202 C.2     1  UNL1        0.2443
     23 N         143.5525  140.7206  170.3720 N.am    1  UNL1       -0.1970
     24 O         143.8248  139.6760  171.4134 O.3     1  UNL1       -0.2952
     25 H         144.1463  140.8039  169.5912 H       1  UNL1        0.1822
     26 H         143.1507  139.7293  172.1088 H       1  UNL1        0.2414
     27 N         142.4701  144.8798  161.7286 N.pl3   1  UNL1       -0.2962
     28 H         142.3942  145.8262  161.9889 H       1  UNL1        0.1537
     29 C         143.3553  143.9554  162.5110 C.ar    1  UNL1        0.0780
     30 C         144.4142  143.1581  161.8089 C.ar    1  UNL1        0.0170
     31 C         145.2993  142.2338  162.5913 C.ar    1  UNL1        0.0023
     32 C         145.1255  142.1068  164.0757 C.ar    1  UNL1        0.0138
     33 C         144.0666  142.9041  164.7778 C.ar    1  UNL1        0.0863
     34 CL        143.8928  142.7771  166.2623 Cl      1  UNL1       -0.0799
     35 C         143.1815  143.8284  163.9955 C.ar    1  UNL1        0.1639
     36 F         142.1225  144.6258  164.6976 F       1  UNL1       -0.2020
@<TRIPOS>BOND
     1    21    22    2
     2    22    20    1
     3    20    19    1
     4    19    18    1
     5    18    17    1
     6    17    16    1
     7    16    15    1
     8    15    11    1
     9    11    12    2
    10    11    13   am
    11    13     1    1
    12     1     2   ar
    13     2     3   ar
    14     3     4   ar
    15     4     5   ar
    16     5     6   ar
    17     6     7   ar
    18     7     8   ar
    19     8    27    1
    20    27    29    1
    21    29    30   ar
    22    30    31   ar
    23    31    32   ar
    24    32    33   ar
    25    33    34    1
    26    33    35   ar
    27    35    36    1
    28     8     9   ar
    29     9    10   ar
    30    22    23   am
    31    23    24    1
    32    10     1   ar
    33     9     4   ar
    34    35    29   ar
    35    13    14    1
    36    27    28    1
    37    23    25    1
    38    24    26    1
