@<TRIPOS>MOLECULE
*****
 39 43 0 0 0
SMALL
GASTEIGER

@<TRIPOS>ATOM
      1 C         142.2987  138.7012  162.0912 C.3     1  UNL1        0.0758
      2 C         143.5363  138.7240  161.2441 C.3     1  UNL1        0.0370
      3 C         143.4299  138.5642  159.7564 C.3     1  UNL1        0.0741
      4 N         142.0859  138.3817  159.1159 N.3     1  UNL1       -0.2688
      5 C         140.8482  138.3590  159.9631 C.3     1  UNL1        0.0741
      6 C         140.9546  138.5187  161.4508 C.3     1  UNL1        0.0370
      7 C         142.8782  140.8715  170.1351 C.3     1  UNL1        0.0897
      8 N         142.7718  140.7117  168.6475 N.3     1  UNL1       -0.2683
      9 C         142.7243  139.3402  168.0419 C.3     1  UNL1        0.0940
     10 C         142.6179  139.1805  166.5542 C.3     1  UNL1        0.1125
     11 N         142.5590  140.3922  165.6721 N.am    1  UNL1       -0.2593
     12 C         142.4526  140.2325  164.1845 C.2     1  UNL1        0.3042
     13 O         142.3937  141.4442  163.3023 O.2     1  UNL1       -0.2526
     14 N         142.4051  138.8610  163.5789 N.am    1  UNL1       -0.2903
     15 C         142.6065  141.7637  166.2777 C.3     1  UNL1        0.1153
     16 C         142.7129  141.9234  167.7653 C.3     1  UNL1        0.0969
     17 H         142.4438  138.0657  164.1579 H       1  UNL1        0.1509
     18 C         142.5476  142.9755  165.3955 C.ar    1  UNL1       -0.0029
     19 C         141.2202  143.5433  164.9889 C.ar    1  UNL1       -0.0026
     20 C         141.1613  144.7552  164.1067 C.ar    1  UNL1       -0.0003
     21 C         142.4299  145.3991  163.6313 C.ar    1  UNL1       -0.0000
     22 C         143.7573  144.8312  164.0380 C.ar    1  UNL1       -0.0003
     23 C         143.8162  143.6195  164.9201 C.ar    1  UNL1       -0.0026
     24 C         141.9795  138.2220  157.6282 C.3     1  UNL1        0.1007
     25 C         142.7389  137.1299  156.9350 C.ar    1  UNL1        0.0129
     26 C         143.6140  137.2938  155.7277 C.ar    1  UNL1        0.0176
     27 C         144.1725  135.9474  155.3738 C.ar    1  UNL1        0.0799
     28 N         143.6426  134.9514  156.3624 N.ar    1  UNL1       -0.3038
     29 C         142.7566  135.6822  157.3272 C.ar    1  UNL1        0.0772
     30 C         143.9455  133.4824  156.3827 C.ar    1  UNL1        0.0640
     31 C         143.6154  132.6321  155.1919 C.ar    1  UNL1        0.0175
     32 C         143.9183  131.1631  155.2121 C.ar    1  UNL1        0.0053
     33 C         144.5514  130.5445  156.4231 C.ar    1  UNL1        0.0715
     34 C         144.8816  131.3948  157.6139 C.ar    1  UNL1        0.0053
     35 C         144.5786  132.8637  157.5936 C.ar    1  UNL1        0.0175
     36 C         144.8543  129.0756  156.4433 C.3     1  UNL1        0.4186
     37 F         145.1573  127.6066  156.4635 F       1  UNL1       -0.1659
     38 F         145.3702  129.1625  155.0375 F       1  UNL1       -0.1659
     39 F         144.3385  128.9885  157.8491 F       1  UNL1       -0.1659
@<TRIPOS>BOND
     1     7     8    1
     2     8     9    1
     3     9    10    1
     4    10    11    1
     5    11    12   am
     6    12    13    2
     7    12    14   am
     8    14     1    1
     9     1     2    1
    10     2     3    1
    11     3     4    1
    12     4    24    1
    13    24    25    1
    14    25    26   ar
    15    26    27   ar
    16    27    28   ar
    17    28    30    1
    18    30    31   ar
    19    31    32   ar
    20    32    33   ar
    21    33    36    1
    22    36    37    1
    23    36    38    1
    24    36    39    1
    25    33    34   ar
    26    34    35   ar
    27    28    29   ar
    28     4     5    1
    29     5     6    1
    30    11    15    1
    31    15    18    1
    32    18    19   ar
    33    19    20   ar
    34    20    21   ar
    35    21    22   ar
    36    22    23   ar
    37    15    16    1
    38    16     8    1
    39     6     1    1
    40    23    18   ar
    41    29    25   ar
    42    35    30   ar
    43    14    17    1
@<TRIPOS>MOLECULE
*****
 39 43 0 0 0
SMALL
GASTEIGER

@<TRIPOS>ATOM
      1 C         142.2516  138.7813  161.7829 C.3     1  UNL1        0.0758
      2 C         140.9049  138.5631  161.1595 C.3     1  UNL1        0.0370
      3 C         140.7742  138.4763  159.6677 C.3     1  UNL1        0.0741
      4 N         141.9901  138.6079  158.7994 N.3     1  UNL1       -0.2688
      5 C         143.3369  138.8261  159.4228 C.3     1  UNL1        0.0741
      6 C         143.4677  138.9129  160.9146 C.3     1  UNL1        0.0370
      7 C         142.9097  140.5541  169.9177 C.3     1  UNL1        0.0897
      8 N         142.7790  140.4673  168.4259 N.3     1  UNL1       -0.2683
      9 C         142.7746  139.1283  167.7500 C.3     1  UNL1        0.0940
     10 C         142.6438  139.0415  166.2582 C.3     1  UNL1        0.1125
     11 N         142.5175  140.2938  165.4424 N.am    1  UNL1       -0.2593
     12 C         142.3868  140.2071  163.9506 C.2     1  UNL1        0.3042
     13 O         142.2604  141.4594  163.1347 O.2     1  UNL1       -0.2526
     14 N         142.3823  138.8681  163.2747 N.am    1  UNL1       -0.2903
     15 C         142.5219  141.6329  166.1182 C.3     1  UNL1        0.1153
     16 C         142.6527  141.7196  167.6100 C.3     1  UNL1        0.0969
     17 H         142.4652  138.0461  163.8102 H       1  UNL1        0.1509
     18 C         142.3956  142.8853  165.3024 C.ar    1  UNL1       -0.0029
     19 C         141.0382  143.4292  164.9685 C.ar    1  UNL1       -0.0026
     20 C         140.9118  144.6816  164.1526 C.ar    1  UNL1       -0.0003
     21 C         142.1430  145.3901  163.6706 C.ar    1  UNL1       -0.0000
     22 C         143.5005  144.8461  164.0046 C.ar    1  UNL1       -0.0003
     23 C         143.6268  143.5938  164.8204 C.ar    1  UNL1       -0.0026
     24 C         141.8594  138.5211  157.3076 C.3     1  UNL1        0.1007
     25 C         141.7686  137.1813  156.6393 C.ar    1  UNL1        0.0129
     26 C         140.6697  136.7240  155.7264 C.ar    1  UNL1        0.0176
     27 C         140.9827  135.3236  155.2895 C.ar    1  UNL1        0.0799
     28 N         142.2751  134.9155  155.9324 N.ar    1  UNL1       -0.3038
     29 C         142.7608  136.0636  156.7666 C.ar    1  UNL1        0.0772
     30 C         142.9613  133.5916  155.7696 C.ar    1  UNL1        0.0640
     31 C         144.0802  133.2083  156.6921 C.ar    1  UNL1        0.0175
     32 C         144.7664  131.8844  156.5293 C.ar    1  UNL1        0.0053
     33 C         144.3337  130.9438  155.4440 C.ar    1  UNL1        0.0715
     34 C         143.2148  131.3271  154.5213 C.ar    1  UNL1        0.0053
     35 C         142.5286  132.6510  154.6842 C.ar    1  UNL1        0.0175
     36 C         145.0199  129.6200  155.2812 C.3     1  UNL1        0.4186
     37 F         145.7061  128.2961  155.1184 F       1  UNL1       -0.1659
     38 F         144.9717  129.4123  156.7658 F       1  UNL1       -0.1659
     39 F         145.0682  129.8276  153.7964 F       1  UNL1       -0.1659
@<TRIPOS>BOND
     1     7     8    1
     2     8     9    1
     3     9    10    1
     4    10    11    1
     5    11    12   am
     6    12    13    2
     7    12    14   am
     8    14     1    1
     9     1     2    1
    10     2     3    1
    11     3     4    1
    12     4    24    1
    13    24    25    1
    14    25    26   ar
    15    26    27   ar
    16    27    28   ar
    17    28    30    1
    18    30    31   ar
    19    31    32   ar
    20    32    33   ar
    21    33    36    1
    22    36    37    1
    23    36    38    1
    24    36    39    1
    25    33    34   ar
    26    34    35   ar
    27    28    29   ar
    28     4     5    1
    29     5     6    1
    30    11    15    1
    31    15    18    1
    32    18    19   ar
    33    19    20   ar
    34    20    21   ar
    35    21    22   ar
    36    22    23   ar
    37    15    16    1
    38    16     8    1
    39     6     1    1
    40    23    18   ar
    41    29    25   ar
    42    35    30   ar
    43    14    17    1
@<TRIPOS>MOLECULE
*****
 39 43 0 0 0
SMALL
GASTEIGER

@<TRIPOS>ATOM
      1 C         142.5105  139.0941  162.0768 C.3     1  UNL1        0.0758
      2 C         143.7191  139.4940  161.2835 C.3     1  UNL1        0.0370
      3 C         143.7235  139.3352  159.7920 C.3     1  UNL1        0.0741
      4 N         142.5193  138.7764  159.0937 N.3     1  UNL1       -0.2688
      5 C         141.3106  138.3764  159.8870 C.3     1  UNL1        0.0741
      6 C         141.3062  138.5353  161.3786 C.3     1  UNL1        0.0370
      7 C         141.6346  140.9428  170.1741 C.3     1  UNL1        0.0897
      8 N         141.6390  140.7840  168.6825 N.3     1  UNL1       -0.2683
      9 C         142.4930  139.7296  168.0431 C.3     1  UNL1        0.0940
     10 C         142.4974  139.5707  166.5515 C.3     1  UNL1        0.1125
     11 N         141.6478  140.4662  165.6994 N.am    1  UNL1       -0.2593
     12 C         141.6521  140.3074  164.2078 C.2     1  UNL1        0.3042
     13 O         140.8025  141.2028  163.3557 O.2     1  UNL1       -0.2526
     14 N         142.5061  139.2530  163.5684 N.am    1  UNL1       -0.2903
     15 C         140.7937  141.5206  166.3388 C.3     1  UNL1        0.1153
     16 C         140.7894  141.6795  167.8304 C.3     1  UNL1        0.0969
     17 H         143.0638  138.6653  164.1277 H       1  UNL1        0.1509
     18 C         139.9440  142.4161  165.4867 C.ar    1  UNL1       -0.0029
     19 C         140.4618  143.7577  165.0601 C.ar    1  UNL1       -0.0026
     20 C         139.6120  144.6533  164.2079 C.ar    1  UNL1       -0.0003
     21 C         138.2446  144.2072  163.7825 C.ar    1  UNL1       -0.0000
     22 C         137.7268  142.8655  164.2092 C.ar    1  UNL1       -0.0003
     23 C         138.5765  141.9700  165.0613 C.ar    1  UNL1       -0.0026
     24 C         142.5236  138.6175  157.6022 C.3     1  UNL1        0.1007
     25 C         142.9878  137.3310  156.9863 C.ar    1  UNL1        0.0129
     26 C         143.5579  137.1683  155.6084 C.ar    1  UNL1        0.0176
     27 C         143.8858  135.7180  155.4107 C.ar    1  UNL1        0.0799
     28 N         143.5184  134.9843  156.6665 N.ar    1  UNL1       -0.3038
     29 C         142.9634  135.9812  157.6402 C.ar    1  UNL1        0.0772
     30 C         143.6779  133.5123  156.9063 C.ar    1  UNL1        0.0640
     31 C         144.7981  133.0099  157.7681 C.ar    1  UNL1        0.0175
     32 C         144.9577  131.5378  158.0080 C.ar    1  UNL1        0.0053
     33 C         143.9971  130.5681  157.3860 C.ar    1  UNL1        0.0715
     34 C         142.8768  131.0704  156.5242 C.ar    1  UNL1        0.0053
     35 C         142.7173  132.5425  156.2844 C.ar    1  UNL1        0.0175
     36 C         144.1566  129.0961  157.6259 C.3     1  UNL1        0.4186
     37 F         144.3162  127.6240  157.8657 F       1  UNL1       -0.1659
     38 F         144.1534  129.3368  159.1063 F       1  UNL1       -0.1659
     39 F         144.1598  128.8552  156.1453 F       1  UNL1       -0.1659
@<TRIPOS>BOND
     1     7     8    1
     2     8     9    1
     3     9    10    1
     4    10    11    1
     5    11    12   am
     6    12    13    2
     7    12    14   am
     8    14     1    1
     9     1     2    1
    10     2     3    1
    11     3     4    1
    12     4    24    1
    13    24    25    1
    14    25    26   ar
    15    26    27   ar
    16    27    28   ar
    17    28    30    1
    18    30    31   ar
    19    31    32   ar
    20    32    33   ar
    21    33    36    1
    22    36    37    1
    23    36    38    1
    24    36    39    1
    25    33    34   ar
    26    34    35   ar
    27    28    29   ar
    28     4     5    1
    29     5     6    1
    30    11    15    1
    31    15    18    1
    32    18    19   ar
    33    19    20   ar
    34    20    21   ar
    35    21    22   ar
    36    22    23   ar
    37    15    16    1
    38    16     8    1
    39     6     1    1
    40    23    18   ar
    41    29    25   ar
    42    35    30   ar
    43    14    17    1
@<TRIPOS>MOLECULE
*****
 39 43 0 0 0
SMALL
GASTEIGER

@<TRIPOS>ATOM
      1 C         139.1023  140.8875  161.7237 C.3     1  UNL1        0.0758
      2 C         138.6388  142.2123  161.1946 C.3     1  UNL1        0.0370
      3 C         138.5584  142.4421  159.7145 C.3     1  UNL1        0.0741
      4 N         138.9416  141.3472  158.7635 N.3     1  UNL1       -0.2688
      5 C         139.4052  140.0224  159.2927 C.3     1  UNL1        0.0741
      6 C         139.4855  139.7925  160.7728 C.3     1  UNL1        0.0370
      7 C         140.8247  139.8391  169.8283 C.3     1  UNL1        0.0897
      8 N         140.7443  140.0689  168.3482 N.3     1  UNL1       -0.2683
      9 C         139.4237  139.9680  167.6441 C.3     1  UNL1        0.0940
     10 C         139.3434  140.1979  166.1640 C.3     1  UNL1        0.1125
     11 N         140.5836  140.5287  165.3880 N.am    1  UNL1       -0.2593
     12 C         140.5033  140.7585  163.9079 C.2     1  UNL1        0.3042
     13 O         141.7435  141.0893  163.1319 O.2     1  UNL1       -0.2526
     14 N         139.1827  140.6576  163.2038 N.am    1  UNL1       -0.2903
     15 C         141.9042  140.6296  166.0921 C.3     1  UNL1        0.1153
     16 C         141.9846  140.3997  167.5722 C.3     1  UNL1        0.0969
     17 H         138.3686  140.4405  163.7132 H       1  UNL1        0.1509
     18 C         143.1446  140.9604  165.3160 C.ar    1  UNL1       -0.0029
     19 C         143.9680  139.8608  164.7136 C.ar    1  UNL1       -0.0026
     20 C         145.2083  140.1916  163.9376 C.ar    1  UNL1       -0.0003
     21 C         145.6252  141.6220  163.7640 C.ar    1  UNL1       -0.0000
     22 C         144.8018  142.7216  164.3664 C.ar    1  UNL1       -0.0003
     23 C         143.5615  142.3908  165.1424 C.ar    1  UNL1       -0.0026
     24 C         138.8613  141.5771  157.2834 C.3     1  UNL1        0.1007
     25 C         137.5416  141.4707  156.5785 C.ar    1  UNL1        0.0129
     26 C         137.2297  141.9931  155.2074 C.ar    1  UNL1        0.0176
     27 C         135.7974  141.6685  154.9023 C.ar    1  UNL1        0.0799
     28 N         135.2241  140.9453  156.0849 N.ar    1  UNL1       -0.3038
     29 C         136.3020  140.8231  157.1207 C.ar    1  UNL1        0.0772
     30 C         133.8193  140.4341  156.2096 C.ar    1  UNL1        0.0640
     31 C         133.5632  139.0836  156.8101 C.ar    1  UNL1        0.0175
     32 C         132.1585  138.5724  156.9348 C.ar    1  UNL1        0.0053
     33 C         131.0099  139.4117  156.4591 C.ar    1  UNL1        0.0715
     34 C         131.2660  140.7623  155.8586 C.ar    1  UNL1        0.0053
     35 C         132.6708  141.2734  155.7339 C.ar    1  UNL1        0.0175
     36 C         129.6053  138.9006  156.5838 C.3     1  UNL1        0.4186
     37 F         128.2006  138.3894  156.7085 F       1  UNL1       -0.1659
     38 F         129.1825  140.2086  157.1838 F       1  UNL1       -0.1659
     39 F         130.0281  137.5924  155.9838 F       1  UNL1       -0.1659
@<TRIPOS>BOND
     1     7     8    1
     2     8     9    1
     3     9    10    1
     4    10    11    1
     5    11    12   am
     6    12    13    2
     7    12    14   am
     8    14     1    1
     9     1     2    1
    10     2     3    1
    11     3     4    1
    12     4    24    1
    13    24    25    1
    14    25    26   ar
    15    26    27   ar
    16    27    28   ar
    17    28    30    1
    18    30    31   ar
    19    31    32   ar
    20    32    33   ar
    21    33    36    1
    22    36    37    1
    23    36    38    1
    24    36    39    1
    25    33    34   ar
    26    34    35   ar
    27    28    29   ar
    28     4     5    1
    29     5     6    1
    30    11    15    1
    31    15    18    1
    32    18    19   ar
    33    19    20   ar
    34    20    21   ar
    35    21    22   ar
    36    22    23   ar
    37    15    16    1
    38    16     8    1
    39     6     1    1
    40    23    18   ar
    41    29    25   ar
    42    35    30   ar
    43    14    17    1
@<TRIPOS>MOLECULE
*****
 39 43 0 0 0
SMALL
GASTEIGER

@<TRIPOS>ATOM
      1 C         138.7608  140.7233  162.6080 C.3     1  UNL1        0.0758
      2 C         139.1543  141.9821  161.8934 C.3     1  UNL1        0.0370
      3 C         138.9011  142.1193  160.4213 C.3     1  UNL1        0.0741
      4 N         138.2545  140.9977  159.6638 N.3     1  UNL1       -0.2688
      5 C         137.8610  139.7388  160.3783 C.3     1  UNL1        0.0741
      6 C         138.1142  139.6016  161.8504 C.3     1  UNL1        0.0370
      7 C         141.4282  140.1076  170.4982 C.3     1  UNL1        0.0897
      8 N         141.1750  140.2448  169.0261 N.3     1  UNL1       -0.2683
      9 C         139.7735  140.1743  168.4964 C.3     1  UNL1        0.0940
     10 C         139.5203  140.3116  167.0243 C.3     1  UNL1        0.1125
     11 N         140.6687  140.5192  166.0819 N.am    1  UNL1       -0.2593
     12 C         140.4155  140.6565  164.6098 C.2     1  UNL1        0.3042
     13 O         141.5639  140.8642  163.6675 O.2     1  UNL1       -0.2526
     14 N         139.0140  140.5860  164.0801 N.am    1  UNL1       -0.2903
     15 C         142.0702  140.5897  166.6117 C.3     1  UNL1        0.1153
     16 C         142.3234  140.4525  168.0838 C.3     1  UNL1        0.0969
     17 H         138.2603  140.4497  164.6986 H       1  UNL1        0.1509
     18 C         143.2187  140.7974  165.6693 C.ar    1  UNL1       -0.0029
     19 C         143.7042  142.1853  165.3730 C.ar    1  UNL1       -0.0026
     20 C         144.8527  142.3930  164.4307 C.ar    1  UNL1       -0.0003
     21 C         145.5156  141.2127  163.7846 C.ar    1  UNL1       -0.0000
     22 C         145.0300  139.8247  164.0809 C.ar    1  UNL1       -0.0003
     23 C         143.8816  139.6170  165.0232 C.ar    1  UNL1       -0.0026
     24 C         138.0013  141.1350  158.1917 C.3     1  UNL1        0.1007
     25 C         138.5725  140.1302  157.2356 C.ar    1  UNL1        0.0129
     26 C         138.2372  140.0099  155.7785 C.ar    1  UNL1        0.0176
     27 C         139.0366  138.8746  155.2110 C.ar    1  UNL1        0.0799
     28 N         139.8661  138.2933  156.3175 N.ar    1  UNL1       -0.3038
     29 C         139.5792  139.0693  157.5687 C.ar    1  UNL1        0.0772
     30 C         140.8157  137.1386  156.1943 C.ar    1  UNL1        0.0640
     31 C         140.5476  136.0501  155.1977 C.ar    1  UNL1        0.0175
     32 C         141.4972  134.8955  155.0745 C.ar    1  UNL1        0.0053
     33 C         142.7148  134.8294  155.9480 C.ar    1  UNL1        0.0715
     34 C         142.9830  135.9180  156.9446 C.ar    1  UNL1        0.0053
     35 C         142.0333  137.0725  157.0677 C.ar    1  UNL1        0.0175
     36 C         143.6644  133.6748  155.8248 C.3     1  UNL1        0.4186
     37 F         144.6139  132.5202  155.7016 F       1  UNL1       -0.1659
     38 F         144.3584  134.1115  157.0807 F       1  UNL1       -0.1659
     39 F         142.9703  133.2381  154.5688 F       1  UNL1       -0.1659
@<TRIPOS>BOND
     1     7     8    1
     2     8     9    1
     3     9    10    1
     4    10    11    1
     5    11    12   am
     6    12    13    2
     7    12    14   am
     8    14     1    1
     9     1     2    1
    10     2     3    1
    11     3     4    1
    12     4    24    1
    13    24    25    1
    14    25    26   ar
    15    26    27   ar
    16    27    28   ar
    17    28    30    1
    18    30    31   ar
    19    31    32   ar
    20    32    33   ar
    21    33    36    1
    22    36    37    1
    23    36    38    1
    24    36    39    1
    25    33    34   ar
    26    34    35   ar
    27    28    29   ar
    28     4     5    1
    29     5     6    1
    30    11    15    1
    31    15    18    1
    32    18    19   ar
    33    19    20   ar
    34    20    21   ar
    35    21    22   ar
    36    22    23   ar
    37    15    16    1
    38    16     8    1
    39     6     1    1
    40    23    18   ar
    41    29    25   ar
    42    35    30   ar
    43    14    17    1
@<TRIPOS>MOLECULE
*****
 39 43 0 0 0
SMALL
GASTEIGER

@<TRIPOS>ATOM
      1 C         143.0162  143.0198  162.2510 C.3     1  UNL1        0.0758
      2 C         141.9264  143.8560  161.6484 C.3     1  UNL1        0.0370
      3 C         141.8603  144.0438  160.1617 C.3     1  UNL1        0.0741
      4 N         142.8839  143.3953  159.2776 N.3     1  UNL1       -0.2688
      5 C         143.9737  142.5591  159.8802 C.3     1  UNL1        0.0741
      6 C         144.0399  142.3714  161.3669 C.3     1  UNL1        0.0370
      7 C         142.6918  140.8907  170.3202 C.3     1  UNL1        0.0897
      8 N         142.6257  141.0784  168.8335 N.3     1  UNL1       -0.2683
      9 C         143.2807  142.2688  168.1980 C.3     1  UNL1        0.0940
     10 C         143.2145  142.4566  166.7112 C.3     1  UNL1        0.1125
     11 N         142.4934  141.4539  165.8600 N.am    1  UNL1       -0.2593
     12 C         142.4273  141.6417  164.3733 C.2     1  UNL1        0.3042
     13 O         141.7062  140.6390  163.5220 O.2     1  UNL1       -0.2526
     14 N         143.0823  142.8321  163.7378 N.am    1  UNL1       -0.2903
     15 C         141.8385  140.2635  166.4955 C.3     1  UNL1        0.1153
     16 C         141.9046  140.0758  167.9822 C.3     1  UNL1        0.0969
     17 H         143.5556  143.4902  164.2965 H       1  UNL1        0.1509
     18 C         141.1173  139.2608  165.6443 C.ar    1  UNL1       -0.0029
     19 C         141.8691  138.1138  165.0368 C.ar    1  UNL1       -0.0026
     20 C         141.1480  137.1111  164.1856 C.ar    1  UNL1       -0.0003
     21 C         139.6750  137.2554  163.9418 C.ar    1  UNL1       -0.0000
     22 C         138.9231  138.4026  164.5493 C.ar    1  UNL1       -0.0003
     23 C         139.6443  139.4052  165.4005 C.ar    1  UNL1       -0.0026
     24 C         142.8178  143.5831  157.7908 C.3     1  UNL1        0.1007
     25 C         141.6712  144.3328  157.1798 C.ar    1  UNL1        0.0129
     26 C         140.3248  143.7636  156.8434 C.ar    1  UNL1        0.0176
     27 C         139.4912  144.8624  156.2536 C.ar    1  UNL1        0.0799
     28 N         140.3226  146.1107  156.2255 N.ar    1  UNL1       -0.3038
     29 C         141.6698  145.7833  156.7979 C.ar    1  UNL1        0.0772
     30 C         139.8836  147.4509  155.7146 C.ar    1  UNL1        0.0640
     31 C         138.9549  148.2981  156.5330 C.ar    1  UNL1        0.0175
     32 C         138.5160  149.6384  156.0221 C.ar    1  UNL1        0.0053
     33 C         139.0057  150.1315  154.6928 C.ar    1  UNL1        0.0715
     34 C         139.9345  149.2843  153.8743 C.ar    1  UNL1        0.0053
     35 C         140.3734  147.9441  154.3853 C.ar    1  UNL1        0.0175
     36 C         138.5668  151.4717  154.1820 C.3     1  UNL1        0.4186
     37 F         138.1278  152.8120  153.6711 F       1  UNL1       -0.1659
     38 F         138.1100  151.8476  155.5603 F       1  UNL1       -0.1659
     39 F         139.0236  151.0959  152.8035 F       1  UNL1       -0.1659
@<TRIPOS>BOND
     1     7     8    1
     2     8     9    1
     3     9    10    1
     4    10    11    1
     5    11    12   am
     6    12    13    2
     7    12    14   am
     8    14     1    1
     9     1     2    1
    10     2     3    1
    11     3     4    1
    12     4    24    1
    13    24    25    1
    14    25    26   ar
    15    26    27   ar
    16    27    28   ar
    17    28    30    1
    18    30    31   ar
    19    31    32   ar
    20    32    33   ar
    21    33    36    1
    22    36    37    1
    23    36    38    1
    24    36    39    1
    25    33    34   ar
    26    34    35   ar
    27    28    29   ar
    28     4     5    1
    29     5     6    1
    30    11    15    1
    31    15    18    1
    32    18    19   ar
    33    19    20   ar
    34    20    21   ar
    35    21    22   ar
    36    22    23   ar
    37    15    16    1
    38    16     8    1
    39     6     1    1
    40    23    18   ar
    41    29    25   ar
    42    35    30   ar
    43    14    17    1
@<TRIPOS>MOLECULE
*****
 39 43 0 0 0
SMALL
GASTEIGER

@<TRIPOS>ATOM
      1 C         138.8793  140.6966  162.3077 C.3     1  UNL1        0.0758
      2 C         138.7826  142.0742  161.7223 C.3     1  UNL1        0.0370
      3 C         138.6109  142.2500  160.2426 C.3     1  UNL1        0.0741
      4 N         138.5360  141.0481  159.3482 N.3     1  UNL1       -0.2688
      5 C         138.6328  139.6704  159.9336 C.3     1  UNL1        0.0741
      6 C         138.8044  139.4946  161.4134 C.3     1  UNL1        0.0370
      7 C         141.1041  139.9070  170.3188 C.3     1  UNL1        0.0897
      8 N         140.9324  140.0828  168.8390 N.3     1  UNL1       -0.2683
      9 C         139.5661  139.9935  168.2267 C.3     1  UNL1        0.0940
     10 C         139.3944  140.1692  166.7469 C.3     1  UNL1        0.1125
     11 N         140.5891  140.4344  165.8796 N.am    1  UNL1       -0.2593
     12 C         140.4174  140.6101  164.3998 C.2     1  UNL1        0.3042
     13 O         141.6121  140.8753  163.5324 O.2     1  UNL1       -0.2526
     14 N         139.0510  140.5208  163.7875 N.am    1  UNL1       -0.2903
     15 C         141.9554  140.5237  166.4919 C.3     1  UNL1        0.1153
     16 C         142.1271  140.3479  167.9717 C.3     1  UNL1        0.0969
     17 H         138.2669  140.3468  164.3567 H       1  UNL1        0.1509
     18 C         143.1502  140.7889  165.6245 C.ar    1  UNL1       -0.0029
     19 C         143.8898  139.6449  164.9966 C.ar    1  UNL1       -0.0026
     20 C         145.0846  139.9101  164.1292 C.ar    1  UNL1       -0.0003
     21 C         145.5397  141.3192  163.8898 C.ar    1  UNL1       -0.0000
     22 C         144.8000  142.4631  164.5178 C.ar    1  UNL1       -0.0003
     23 C         143.6053  142.1980  165.3851 C.ar    1  UNL1       -0.0026
     24 C         138.3643  141.2239  157.8685 C.3     1  UNL1        0.1007
     25 C         139.1948  142.2325  157.1317 C.ar    1  UNL1        0.0129
     26 C         140.6379  142.0785  156.7524 C.ar    1  UNL1        0.0176
     27 C         141.0630  143.3230  156.0311 C.ar    1  UNL1        0.0799
     28 N         139.8826  144.2463  155.9646 N.ar    1  UNL1       -0.3038
     29 C         138.7280  143.5723  156.6447 C.ar    1  UNL1        0.0772
     30 C         139.8607  145.6050  155.3293 C.ar    1  UNL1        0.0640
     31 C         140.7075  145.8825  154.1227 C.ar    1  UNL1        0.0175
     32 C         140.6855  147.2412  153.4875 C.ar    1  UNL1        0.0053
     33 C         139.8168  148.3223  154.0588 C.ar    1  UNL1        0.0715
     34 C         138.9700  148.0448  155.2655 C.ar    1  UNL1        0.0053
     35 C         138.9920  146.6861  155.9007 C.ar    1  UNL1        0.0175
     36 C         139.7949  149.6809  153.4236 C.3     1  UNL1        0.4186
     37 F         139.7730  151.0396  152.7884 F       1  UNL1       -0.1659
     38 F         139.3861  150.2868  154.7334 F       1  UNL1       -0.1659
     39 F         140.2037  149.0751  152.1137 F       1  UNL1       -0.1659
@<TRIPOS>BOND
     1     7     8    1
     2     8     9    1
     3     9    10    1
     4    10    11    1
     5    11    12   am
     6    12    13    2
     7    12    14   am
     8    14     1    1
     9     1     2    1
    10     2     3    1
    11     3     4    1
    12     4    24    1
    13    24    25    1
    14    25    26   ar
    15    26    27   ar
    16    27    28   ar
    17    28    30    1
    18    30    31   ar
    19    31    32   ar
    20    32    33   ar
    21    33    36    1
    22    36    37    1
    23    36    38    1
    24    36    39    1
    25    33    34   ar
    26    34    35   ar
    27    28    29   ar
    28     4     5    1
    29     5     6    1
    30    11    15    1
    31    15    18    1
    32    18    19   ar
    33    19    20   ar
    34    20    21   ar
    35    21    22   ar
    36    22    23   ar
    37    15    16    1
    38    16     8    1
    39     6     1    1
    40    23    18   ar
    41    29    25   ar
    42    35    30   ar
    43    14    17    1
@<TRIPOS>MOLECULE
*****
 39 43 0 0 0
SMALL
GASTEIGER

@<TRIPOS>ATOM
      1 C         142.7222  139.5688  161.7426 C.3     1  UNL1        0.0758
      2 C         141.7514  138.6170  161.1091 C.3     1  UNL1        0.0370
      3 C         141.7791  138.3938  159.6260 C.3     1  UNL1        0.0741
      4 N         142.7777  139.1225  158.7765 N.3     1  UNL1       -0.2688
      5 C         143.7486  140.0744  159.4100 C.3     1  UNL1        0.0741
      6 C         143.7208  140.2976  160.8930 C.3     1  UNL1        0.0370
      7 C         141.6381  141.6892  169.7475 C.3     1  UNL1        0.0897
      8 N         141.6659  141.4660  168.2645 N.3     1  UNL1       -0.2683
      9 C         142.6111  140.4616  167.6747 C.3     1  UNL1        0.0940
     10 C         142.6389  140.2384  166.1917 C.3     1  UNL1        0.1125
     11 N         141.7214  141.0196  165.2984 N.am    1  UNL1       -0.2593
     12 C         141.7492  140.7964  163.8153 C.2     1  UNL1        0.3042
     13 O         140.8318  141.5775  162.9220 O.2     1  UNL1       -0.2526
     14 N         142.6944  139.7920  163.2256 N.am    1  UNL1       -0.2903
     15 C         140.7762  142.0239  165.8881 C.3     1  UNL1        0.1153
     16 C         140.7485  142.2471  167.3711 C.3     1  UNL1        0.0969
     17 H         143.2966  139.2793  163.8119 H       1  UNL1        0.1509
     18 C         139.8587  142.8052  164.9948 C.ar    1  UNL1       -0.0029
     19 C         138.4799  142.2918  164.7026 C.ar    1  UNL1       -0.0026
     20 C         137.5624  143.0731  163.8093 C.ar    1  UNL1       -0.0003
     21 C         138.0238  144.3676  163.2082 C.ar    1  UNL1       -0.0000
     22 C         139.4027  144.8809  163.5004 C.ar    1  UNL1       -0.0003
     23 C         140.3201  144.0997  164.3937 C.ar    1  UNL1       -0.0026
     24 C         142.8055  138.8993  157.2934 C.3     1  UNL1        0.1007
     25 C         142.2636  137.6251  156.7165 C.ar    1  UNL1        0.0129
     26 C         141.0647  137.5014  155.8235 C.ar    1  UNL1        0.0176
     27 C         140.8856  136.0508  155.4863 C.ar    1  UNL1        0.0799
     28 N         141.9738  135.2780  156.1709 N.ar    1  UNL1       -0.3038
     29 C         142.8254  136.2510  156.9312 C.ar    1  UNL1        0.0772
     30 C         142.1751  133.7930  156.1065 C.ar    1  UNL1        0.0640
     31 C         143.2386  133.1434  156.9412 C.ar    1  UNL1        0.0175
     32 C         143.4399  131.6583  156.8768 C.ar    1  UNL1        0.0053
     33 C         142.5776  130.8229  155.9777 C.ar    1  UNL1        0.0715
     34 C         141.5139  131.4725  155.1429 C.ar    1  UNL1        0.0053
     35 C         141.3128  132.9575  155.2074 C.ar    1  UNL1        0.0175
     36 C         142.7788  129.3379  155.9133 C.3     1  UNL1        0.4186
     37 F         142.9801  127.8528  155.8489 F       1  UNL1       -0.1659
     38 F         141.3196  129.1528  155.6195 F       1  UNL1       -0.1659
     39 F         144.2381  129.5229  156.2071 F       1  UNL1       -0.1659
@<TRIPOS>BOND
     1     7     8    1
     2     8     9    1
     3     9    10    1
     4    10    11    1
     5    11    12   am
     6    12    13    2
     7    12    14   am
     8    14     1    1
     9     1     2    1
    10     2     3    1
    11     3     4    1
    12     4    24    1
    13    24    25    1
    14    25    26   ar
    15    26    27   ar
    16    27    28   ar
    17    28    30    1
    18    30    31   ar
    19    31    32   ar
    20    32    33   ar
    21    33    36    1
    22    36    37    1
    23    36    38    1
    24    36    39    1
    25    33    34   ar
    26    34    35   ar
    27    28    29   ar
    28     4     5    1
    29     5     6    1
    30    11    15    1
    31    15    18    1
    32    18    19   ar
    33    19    20   ar
    34    20    21   ar
    35    21    22   ar
    36    22    23   ar
    37    15    16    1
    38    16     8    1
    39     6     1    1
    40    23    18   ar
    41    29    25   ar
    42    35    30   ar
    43    14    17    1
@<TRIPOS>MOLECULE
*****
 39 43 0 0 0
SMALL
GASTEIGER

@<TRIPOS>ATOM
      1 C         138.9208  140.8861  162.2437 C.3     1  UNL1        0.0758
      2 C         138.6441  142.2676  161.7290 C.3     1  UNL1        0.0370
      3 C         138.4662  142.4981  160.2575 C.3     1  UNL1        0.0741
      4 N         138.5650  141.3472  159.3007 N.3     1  UNL1       -0.2688
      5 C         138.8417  139.9656  159.8154 C.3     1  UNL1        0.0741
      6 C         139.0196  139.7351  161.2868 C.3     1  UNL1        0.0370
      7 C         141.1789  139.8028  170.2109 C.3     1  UNL1        0.0897
      8 N         141.0010  140.0333  168.7395 N.3     1  UNL1       -0.2683
      9 C         139.6324  139.9640  168.1295 C.3     1  UNL1        0.0940
     10 C         139.4545  140.1945  166.6581 C.3     1  UNL1        0.1125
     11 N         140.6452  140.4944  165.7965 N.am    1  UNL1       -0.2593
     12 C         140.4673  140.7249  164.3251 C.2     1  UNL1        0.3042
     13 O         141.6580  141.0248  163.4635 O.2     1  UNL1       -0.2526
     14 N         139.0987  140.6556  163.7151 N.am    1  UNL1       -0.2903
     15 C         142.0138  140.5637  166.4065 C.3     1  UNL1        0.1153
     16 C         142.1917  140.3332  167.8779 C.3     1  UNL1        0.0969
     17 H         138.3172  140.4588  164.2806 H       1  UNL1        0.1509
     18 C         143.2046  140.8636  165.5449 C.ar    1  UNL1       -0.0029
     19 C         143.6406  142.2835  165.3359 C.ar    1  UNL1       -0.0026
     20 C         144.8314  142.5834  164.4744 C.ar    1  UNL1       -0.0003
     21 C         145.5861  141.4633  163.8219 C.ar    1  UNL1       -0.0000
     22 C         145.1501  140.0433  164.0310 C.ar    1  UNL1       -0.0003
     23 C         143.9594  139.7435  164.8925 C.ar    1  UNL1       -0.0026
     24 C         138.3871  141.5777  157.8293 C.3     1  UNL1        0.1007
     25 C         139.5862  141.6501  156.9311 C.ar    1  UNL1        0.0129
     26 C         139.5648  141.6658  155.4313 C.ar    1  UNL1        0.0176
     27 C         140.9827  141.7450  154.9483 C.ar    1  UNL1        0.0799
     28 N         141.8804  141.7782  156.1496 N.ar    1  UNL1       -0.3038
     29 C         141.0174  141.7196  157.3750 C.ar    1  UNL1        0.0772
     30 C         143.3783  141.8563  156.1290 C.ar    1  UNL1        0.0640
     31 C         144.1367  142.0521  157.4082 C.ar    1  UNL1        0.0175
     32 C         145.6346  142.1302  157.3876 C.ar    1  UNL1        0.0053
     33 C         146.3740  142.0125  156.0879 C.ar    1  UNL1        0.0715
     34 C         145.6155  141.8167  154.8086 C.ar    1  UNL1        0.0053
     35 C         144.1177  141.7386  154.8292 C.ar    1  UNL1        0.0175
     36 C         147.8717  142.0906  156.0673 C.3     1  UNL1        0.4186
     37 F         149.3695  142.1688  156.0468 F       1  UNL1       -0.1659
     38 F         147.8933  141.3376  154.7703 F       1  UNL1       -0.1659
     39 F         147.8502  142.8438  157.3644 F       1  UNL1       -0.1659
@<TRIPOS>BOND
     1     7     8    1
     2     8     9    1
     3     9    10    1
     4    10    11    1
     5    11    12   am
     6    12    13    2
     7    12    14   am
     8    14     1    1
     9     1     2    1
    10     2     3    1
    11     3     4    1
    12     4    24    1
    13    24    25    1
    14    25    26   ar
    15    26    27   ar
    16    27    28   ar
    17    28    30    1
    18    30    31   ar
    19    31    32   ar
    20    32    33   ar
    21    33    36    1
    22    36    37    1
    23    36    38    1
    24    36    39    1
    25    33    34   ar
    26    34    35   ar
    27    28    29   ar
    28     4     5    1
    29     5     6    1
    30    11    15    1
    31    15    18    1
    32    18    19   ar
    33    19    20   ar
    34    20    21   ar
    35    21    22   ar
    36    22    23   ar
    37    15    16    1
    38    16     8    1
    39     6     1    1
    40    23    18   ar
    41    29    25   ar
    42    35    30   ar
    43    14    17    1
