@<TRIPOS>MOLECULE
*****
 38 42 0 0 0
SMALL
GASTEIGER

@<TRIPOS>ATOM
      1 C         139.7505  142.8805  160.3056 C.3     1  UNL1        0.0080
      2 C         139.5893  141.5243  160.9261 C.3     1  UNL1        0.0177
      3 C         139.8182  141.3405  162.3970 C.3     1  UNL1        0.0721
      4 N         140.2083  142.5128  163.2476 N.3     1  UNL1       -0.2736
      5 C         140.3695  143.8689  162.6273 C.3     1  UNL1        0.0776
      6 C         140.1406  144.0528  161.1563 C.3     1  UNL1        0.0525
      7 C         140.4372  142.3290  164.7186 C.3     1  UNL1        0.0582
      8 C         139.9751  143.0327  165.9600 C.3     1  UNL1        0.0204
      9 C         140.7609  142.0690  166.7990 C.3     1  UNL1        0.0252
     10 C         141.2230  141.3652  165.5575 C.3     1  UNL1        0.0204
     11 C         140.9898  141.8851  168.2699 C.ar    1  UNL1       -0.0180
     12 C         141.9796  142.7529  168.9891 C.ar    1  UNL1        0.0255
     13 C         142.2086  142.5690  170.4601 C.ar    1  UNL1        0.1421
     14 F         143.1984  143.4368  171.1793 F       1  UNL1       -0.2041
     15 C         141.4476  141.5175  171.2119 C.ar    1  UNL1        0.0592
     16 C         140.4577  140.6497  170.4927 C.ar    1  UNL1        0.1421
     17 F         139.6968  139.5982  171.2445 F       1  UNL1       -0.2041
     18 C         140.2288  140.8336  169.0217 C.ar    1  UNL1        0.0255
     19 C         140.3018  145.4090  160.5359 C.2     1  UNL1        0.0513
     20 O         139.2945  146.4851  160.8135 O.co2   1  UNL1       -0.5491
     21 O         141.4703  145.6889  159.6380 O.co2   1  UNL1       -0.5491
     22 C         139.5216  143.0644  158.8347 C.3     1  UNL1        0.0033
     23 C         140.5167  142.5291  157.8482 C.3     1  UNL1        0.0338
     24 C         141.9817  142.5593  158.1691 C.3     1  UNL1        0.1328
     25 O         142.8189  143.7287  157.7428 O.3     1  UNL1       -0.3801
     26 H         142.2627  144.3710  157.2749 H       1  UNL1        0.2108
     27 C         144.1782  143.3331  162.0197 C.ar    1  UNL1        0.1388
     28 C         144.8060  142.1940  162.7669 C.ar    1  UNL1        0.0384
     29 C         144.7016  140.7971  162.2307 C.ar    1  UNL1        0.0222
     30 C         143.9695  140.5391  160.9472 C.ar    1  UNL1        0.0813
     31 N         143.8651  139.1422  160.4110 N.ar    1  UNL1       -0.2439
     32 C         143.1329  138.8842  159.1275 C.ar    1  UNL1        0.0986
     33 C         142.5051  140.0233  158.3802 C.ar    1  UNL1        0.0187
     34 C         142.6095  141.4203  158.9164 C.ar    1  UNL1        0.0073
     35 C         143.3417  141.6782  160.1999 C.ar    1  UNL1        0.0190
     36 C         143.4461  143.0752  160.7362 C.ar    1  UNL1        0.0382
     37 C         143.6936  145.0658  163.8939 C.3     1  UNL1        0.2525
     38 O         144.2826  144.7301  162.5559 O.3     1  UNL1       -0.4714
@<TRIPOS>UNITY_ATOM_ATTR
20 1
charge -1
@<TRIPOS>BOND
     1    37    38    1
     2    38    27    1
     3    27    28   ar
     4    28    29   ar
     5    29    30   ar
     6    30    31   ar
     7    31    32   ar
     8    32    33   ar
     9    33    34   ar
    10    34    24    1
    11    24    25    1
    12    24    23    1
    13    23    22    1
    14     1    22    1
    15     1     2    1
    16     2     3    1
    17     3     4    1
    18     4     7    1
    19     7     8    1
    20     8     9    1
    21     9    11    1
    22    11    12   ar
    23    12    13   ar
    24    13    14    1
    25    13    15   ar
    26    15    16   ar
    27    16    17    1
    28    16    18   ar
    29     9    10    1
    30     4     5    1
    31     5     6    1
    32     6    19    1
    33    19    20   ar
    34    19    21   ar
    35    34    35   ar
    36    35    36   ar
    37    36    27   ar
    38    35    30   ar
    39     6     1    1
    40    10     7    1
    41    18    11   ar
    42    25    26    1
@<TRIPOS>MOLECULE
*****
 38 42 0 0 0
SMALL
GASTEIGER

@<TRIPOS>ATOM
      1 C         138.3273  140.4998  160.0642 C.3     1  UNL1        0.0080
      2 C         137.7560  139.4936  161.0188 C.3     1  UNL1        0.0177
      3 C         138.1696  139.5085  162.4605 C.3     1  UNL1        0.0721
      4 N         139.1545  140.5296  162.9478 N.3     1  UNL1       -0.2736
      5 C         139.7258  141.5357  161.9932 C.3     1  UNL1        0.0776
      6 C         139.3122  141.5208  160.5514 C.3     1  UNL1        0.0525
      7 C         139.5680  140.5445  164.3895 C.3     1  UNL1        0.0582
      8 C         138.9638  140.0529  165.6714 C.3     1  UNL1        0.0204
      9 C         140.1529  140.5656  166.4286 C.3     1  UNL1        0.0252
     10 C         140.7571  141.0572  165.1467 C.3     1  UNL1        0.0204
     11 C         140.5665  140.5805  167.8703 C.ar    1  UNL1       -0.0180
     12 C         140.0530  141.6512  168.7868 C.ar    1  UNL1        0.0255
     13 C         140.4665  141.6662  170.2286 C.ar    1  UNL1        0.1421
     14 F         139.9530  142.7369  171.1451 F       1  UNL1       -0.2041
     15 C         141.3936  140.6104  170.7539 C.ar    1  UNL1        0.0592
     16 C         141.9071  139.5397  169.8374 C.ar    1  UNL1        0.1421
     17 F         142.8342  138.4839  170.3627 F       1  UNL1       -0.2041
     18 C         141.4935  139.5248  168.3956 C.ar    1  UNL1        0.0255
     19 C         139.8835  142.5270  159.5969 C.2     1  UNL1        0.0513
     20 O         141.3316  142.4576  159.2119 O.co2   1  UNL1       -0.5491
     21 O         139.0068  143.6026  159.0273 O.co2   1  UNL1       -0.5491
     22 C         137.9138  140.4848  158.6224 C.3     1  UNL1        0.0033
     23 C         138.9054  140.1088  157.5616 C.3     1  UNL1        0.0338
     24 C         139.8540  138.9698  157.7916 C.3     1  UNL1        0.1328
     25 O         139.3541  137.5563  157.7451 O.3     1  UNL1       -0.3801
     26 H         138.4026  137.5559  157.5568 H       1  UNL1        0.2108
     27 C         141.6463  137.8154  161.7545 C.ar    1  UNL1        0.1388
     28 C         143.0948  138.0899  162.0310 C.ar    1  UNL1        0.0384
     29 C         143.9459  138.7492  160.9865 C.ar    1  UNL1        0.0222
     30 C         143.3485  139.1340  159.6656 C.ar    1  UNL1        0.0813
     31 N         144.1996  139.7933  158.6211 N.ar    1  UNL1       -0.2439
     32 C         143.6022  140.1781  157.3001 C.ar    1  UNL1        0.0986
     33 C         142.1536  139.9036  157.0236 C.ar    1  UNL1        0.0187
     34 C         141.3025  139.2443  158.0681 C.ar    1  UNL1        0.0073
     35 C         141.9000  138.8595  159.3891 C.ar    1  UNL1        0.0190
     36 C         141.0489  138.2002  160.4336 C.ar    1  UNL1        0.0382
     37 C         141.1925  137.2257  164.2438 C.3     1  UNL1        0.2525
     38 O         140.7953  137.1560  162.7990 O.3     1  UNL1       -0.4714
@<TRIPOS>UNITY_ATOM_ATTR
20 1
charge -1
@<TRIPOS>BOND
     1    37    38    1
     2    38    27    1
     3    27    28   ar
     4    28    29   ar
     5    29    30   ar
     6    30    31   ar
     7    31    32   ar
     8    32    33   ar
     9    33    34   ar
    10    34    24    1
    11    24    25    1
    12    24    23    1
    13    23    22    1
    14     1    22    1
    15     1     2    1
    16     2     3    1
    17     3     4    1
    18     4     7    1
    19     7     8    1
    20     8     9    1
    21     9    11    1
    22    11    12   ar
    23    12    13   ar
    24    13    14    1
    25    13    15   ar
    26    15    16   ar
    27    16    17    1
    28    16    18   ar
    29     9    10    1
    30     4     5    1
    31     5     6    1
    32     6    19    1
    33    19    20   ar
    34    19    21   ar
    35    34    35   ar
    36    35    36   ar
    37    36    27   ar
    38    35    30   ar
    39     6     1    1
    40    10     7    1
    41    18    11   ar
    42    25    26    1
@<TRIPOS>MOLECULE
*****
 38 42 0 0 0
SMALL
GASTEIGER

@<TRIPOS>ATOM
      1 C         139.6876  142.7066  160.1642 C.3     1  UNL1        0.0080
      2 C         139.5036  141.3347  160.7422 C.3     1  UNL1        0.0177
      3 C         139.9292  141.0518  162.1524 C.3     1  UNL1        0.0721
      4 N         140.5388  142.1407  162.9847 N.3     1  UNL1       -0.2736
      5 C         140.7228  143.5126  162.4067 C.3     1  UNL1        0.0776
      6 C         140.2971  143.7956  160.9964 C.3     1  UNL1        0.0525
      7 C         140.9644  141.8578  164.3949 C.3     1  UNL1        0.0582
      8 C         142.2500  141.4546  165.0542 C.3     1  UNL1        0.0204
      9 C         141.5663  141.4576  166.3894 C.3     1  UNL1        0.0252
     10 C         140.2807  141.8608  165.7301 C.3     1  UNL1        0.0204
     11 C         141.9919  141.1747  167.7996 C.ar    1  UNL1       -0.0180
     12 C         142.0813  139.7586  168.2862 C.ar    1  UNL1        0.0255
     13 C         142.5069  139.4756  169.6965 C.ar    1  UNL1        0.1421
     14 F         142.5962  138.0596  170.1831 F       1  UNL1       -0.2041
     15 C         142.8432  140.6087  170.6201 C.ar    1  UNL1        0.0592
     16 C         142.7538  142.0248  170.1334 C.ar    1  UNL1        0.1421
     17 F         143.0901  143.1579  171.0570 F       1  UNL1       -0.2041
     18 C         142.3282  142.3078  168.7232 C.ar    1  UNL1        0.0255
     19 C         140.4811  145.1674  160.4185 C.2     1  UNL1        0.0513
     20 O         139.4658  146.2377  160.6894 O.co2   1  UNL1       -0.5491
     21 O         141.6804  145.4690  159.5695 O.co2   1  UNL1       -0.5491
     22 C         139.2620  142.9896  158.7539 C.3     1  UNL1        0.0033
     23 C         140.1365  142.5729  157.6087 C.3     1  UNL1        0.0338
     24 C         141.5887  142.2788  157.8424 C.3     1  UNL1        0.1328
     25 O         142.5964  143.3887  157.7911 O.3     1  UNL1       -0.3801
     26 H         142.1460  144.2256  157.5975 H       1  UNL1        0.2108
     27 C         144.0053  141.3890  161.5327 C.ar    1  UNL1        0.1388
     28 C         144.4498  139.9850  161.8176 C.ar    1  UNL1        0.0384
     29 C         144.0888  138.8776  160.8724 C.ar    1  UNL1        0.0222
     30 C         143.2833  139.1742  159.6424 C.ar    1  UNL1        0.0813
     31 N         142.9223  138.0668  158.6972 N.ar    1  UNL1       -0.2439
     32 C         142.1168  138.3633  157.4671 C.ar    1  UNL1        0.0986
     33 C         141.6722  139.7674  157.1821 C.ar    1  UNL1        0.0187
     34 C         142.0332  140.8748  158.1273 C.ar    1  UNL1        0.0073
     35 C         142.8388  140.5781  159.3574 C.ar    1  UNL1        0.0190
     36 C         143.1998  141.6855  160.3026 C.ar    1  UNL1        0.0382
     37 C         145.3740  142.2576  163.5630 C.3     1  UNL1        0.2525
     38 O         144.3663  142.4964  162.4778 O.3     1  UNL1       -0.4714
@<TRIPOS>UNITY_ATOM_ATTR
20 1
charge -1
@<TRIPOS>BOND
     1    37    38    1
     2    38    27    1
     3    27    28   ar
     4    28    29   ar
     5    29    30   ar
     6    30    31   ar
     7    31    32   ar
     8    32    33   ar
     9    33    34   ar
    10    34    24    1
    11    24    25    1
    12    24    23    1
    13    23    22    1
    14     1    22    1
    15     1     2    1
    16     2     3    1
    17     3     4    1
    18     4     7    1
    19     7     8    1
    20     8     9    1
    21     9    11    1
    22    11    12   ar
    23    12    13   ar
    24    13    14    1
    25    13    15   ar
    26    15    16   ar
    27    16    17    1
    28    16    18   ar
    29     9    10    1
    30     4     5    1
    31     5     6    1
    32     6    19    1
    33    19    20   ar
    34    19    21   ar
    35    34    35   ar
    36    35    36   ar
    37    36    27   ar
    38    35    30   ar
    39     6     1    1
    40    10     7    1
    41    18    11   ar
    42    25    26    1
@<TRIPOS>MOLECULE
*****
 38 42 0 0 0
SMALL
GASTEIGER

@<TRIPOS>ATOM
      1 C         138.3071  141.9299  161.8792 C.3     1  UNL1        0.0080
      2 C         137.7389  140.5639  161.6316 C.3     1  UNL1        0.0177
      3 C         138.3841  139.6537  160.6290 C.3     1  UNL1        0.0721
      4 N         139.5975  140.1095  159.8739 N.3     1  UNL1       -0.2736
      5 C         140.1656  141.4754  160.1216 C.3     1  UNL1        0.0776
      6 C         139.5205  142.3857  161.1242 C.3     1  UNL1        0.0525
      7 C         140.2426  139.1993  158.8713 C.3     1  UNL1        0.0582
      8 C         141.6414  138.9962  158.3690 C.3     1  UNL1        0.0204
      9 C         141.1552  137.9121  157.4533 C.3     1  UNL1        0.0252
     10 C         139.7565  138.1152  157.9557 C.3     1  UNL1        0.0204
     11 C         141.8003  137.0019  156.4507 C.ar    1  UNL1       -0.0180
     12 C         141.5839  137.2284  154.9838 C.ar    1  UNL1        0.0255
     13 C         142.2291  136.3182  153.9811 C.ar    1  UNL1        0.1421
     14 F         142.0126  136.5448  152.5142 F       1  UNL1       -0.2041
     15 C         143.0907  135.1816  154.4454 C.ar    1  UNL1        0.0592
     16 C         143.3072  134.9551  155.9123 C.ar    1  UNL1        0.1421
     17 F         144.1688  133.8184  156.3766 F       1  UNL1       -0.2041
     18 C         142.6620  135.8653  156.9150 C.ar    1  UNL1        0.0255
     19 C         140.0886  143.7516  161.3718 C.2     1  UNL1        0.0513
     20 O         139.7104  144.8946  160.4772 O.co2   1  UNL1       -0.5491
     21 O         141.0350  143.9745  162.5141 O.co2   1  UNL1       -0.5491
     22 C         137.6619  142.8401  162.8818 C.3     1  UNL1        0.0033
     23 C         137.8579  142.5985  164.3492 C.3     1  UNL1        0.0338
     24 C         139.0954  141.9047  164.8364 C.3     1  UNL1        0.1328
     25 O         140.3354  142.6977  165.1254 O.3     1  UNL1       -0.3801
     26 H         140.1679  143.6363  164.9465 H       1  UNL1        0.2108
     27 C         142.0452  139.3337  162.6141 C.ar    1  UNL1        0.1388
     28 C         142.0426  137.8468  162.8122 C.ar    1  UNL1        0.0384
     29 C         141.0569  137.2170  163.7511 C.ar    1  UNL1        0.0222
     30 C         140.0736  138.0740  164.4919 C.ar    1  UNL1        0.0813
     31 N         139.0879  137.4441  165.4308 N.ar    1  UNL1       -0.2439
     32 C         138.1046  138.3011  166.1716 C.ar    1  UNL1        0.0986
     33 C         138.1071  139.7880  165.9735 C.ar    1  UNL1        0.0187
     34 C         139.0929  140.4178  165.0346 C.ar    1  UNL1        0.0073
     35 C         140.0761  139.5608  164.2938 C.ar    1  UNL1        0.0190
     36 C         141.0619  140.1906  163.3548 C.ar    1  UNL1        0.0382
     37 C         144.2221  140.6953  162.2186 C.3     1  UNL1        0.2525
     38 O         143.0309  139.9635  161.6752 O.3     1  UNL1       -0.4714
@<TRIPOS>UNITY_ATOM_ATTR
20 1
charge -1
@<TRIPOS>BOND
     1    37    38    1
     2    38    27    1
     3    27    28   ar
     4    28    29   ar
     5    29    30   ar
     6    30    31   ar
     7    31    32   ar
     8    32    33   ar
     9    33    34   ar
    10    34    24    1
    11    24    25    1
    12    24    23    1
    13    23    22    1
    14     1    22    1
    15     1     2    1
    16     2     3    1
    17     3     4    1
    18     4     7    1
    19     7     8    1
    20     8     9    1
    21     9    11    1
    22    11    12   ar
    23    12    13   ar
    24    13    14    1
    25    13    15   ar
    26    15    16   ar
    27    16    17    1
    28    16    18   ar
    29     9    10    1
    30     4     5    1
    31     5     6    1
    32     6    19    1
    33    19    20   ar
    34    19    21   ar
    35    34    35   ar
    36    35    36   ar
    37    36    27   ar
    38    35    30   ar
    39     6     1    1
    40    10     7    1
    41    18    11   ar
    42    25    26    1
@<TRIPOS>MOLECULE
*****
 38 42 0 0 0
SMALL
GASTEIGER

@<TRIPOS>ATOM
      1 C         143.2851  141.7264  165.7774 C.3     1  UNL1        0.0080
      2 C         142.8485  140.3158  165.5135 C.3     1  UNL1        0.0177
      3 C         142.8169  139.7907  164.1088 C.3     1  UNL1        0.0721
      4 N         143.2219  140.6763  162.9679 N.3     1  UNL1       -0.2736
      5 C         143.6584  142.0869  163.2316 C.3     1  UNL1        0.0776
      6 C         143.6900  142.6120  164.6364 C.3     1  UNL1        0.0525
      7 C         143.1903  140.1513  161.5631 C.3     1  UNL1        0.0582
      8 C         143.8364  139.0038  160.8449 C.3     1  UNL1        0.0204
      9 C         143.1457  139.4087  159.5764 C.3     1  UNL1        0.0252
     10 C         142.4995  140.5562  160.2947 C.3     1  UNL1        0.0204
     11 C         143.1141  138.8837  158.1717 C.ar    1  UNL1       -0.0180
     12 C         142.5776  137.5103  157.8963 C.ar    1  UNL1        0.0255
     13 C         142.5460  136.9852  156.4915 C.ar    1  UNL1        0.1421
     14 F         142.0095  135.6118  156.2161 F       1  UNL1       -0.2041
     15 C         143.0509  137.8336  155.3622 C.ar    1  UNL1        0.0592
     16 C         143.5874  139.2070  155.6377 C.ar    1  UNL1        0.1421
     17 F         144.0923  140.0554  154.5084 F       1  UNL1       -0.2041
     18 C         143.6190  139.7321  157.0424 C.ar    1  UNL1        0.0255
     19 C         144.1266  144.0226  164.9002 C.2     1  UNL1        0.0513
     20 O         143.4809  145.1578  164.1625 O.co2   1  UNL1       -0.5491
     21 O         145.2088  144.2979  165.9017 O.co2   1  UNL1       -0.5491
     22 C         143.3167  142.2514  167.1821 C.3     1  UNL1        0.0033
     23 C         142.3461  141.7297  168.1997 C.3     1  UNL1        0.0338
     24 C         140.8972  142.1094  168.1181 C.3     1  UNL1        0.1328
     25 O         140.3830  143.2790  168.9040 O.3     1  UNL1       -0.3801
     26 H         141.1112  143.6755  169.4075 H       1  UNL1        0.2108
     27 C         139.4641  143.8231  164.2118 C.ar    1  UNL1        0.1388
     28 C         138.5294  143.0333  163.3442 C.ar    1  UNL1        0.0384
     29 C         138.0725  141.6723  163.7788 C.ar    1  UNL1        0.0222
     30 C         138.5502  141.1011  165.0809 C.ar    1  UNL1        0.0813
     31 N         138.0933  139.7401  165.5154 N.ar    1  UNL1       -0.2439
     32 C         138.5709  139.1688  166.8175 C.ar    1  UNL1        0.0986
     33 C         139.5056  139.9586  167.6851 C.ar    1  UNL1        0.0187
     34 C         139.9626  141.3196  167.2506 C.ar    1  UNL1        0.0073
     35 C         139.4848  141.8909  165.9484 C.ar    1  UNL1        0.0190
     36 C         139.9417  143.2519  165.5139 C.ar    1  UNL1        0.0382
     37 C         140.4209  145.3965  162.3791 C.3     1  UNL1        0.2525
     38 O         139.9210  145.1841  163.7772 O.3     1  UNL1       -0.4714
@<TRIPOS>UNITY_ATOM_ATTR
20 1
charge -1
@<TRIPOS>BOND
     1    37    38    1
     2    38    27    1
     3    27    28   ar
     4    28    29   ar
     5    29    30   ar
     6    30    31   ar
     7    31    32   ar
     8    32    33   ar
     9    33    34   ar
    10    34    24    1
    11    24    25    1
    12    24    23    1
    13    23    22    1
    14     1    22    1
    15     1     2    1
    16     2     3    1
    17     3     4    1
    18     4     7    1
    19     7     8    1
    20     8     9    1
    21     9    11    1
    22    11    12   ar
    23    12    13   ar
    24    13    14    1
    25    13    15   ar
    26    15    16   ar
    27    16    17    1
    28    16    18   ar
    29     9    10    1
    30     4     5    1
    31     5     6    1
    32     6    19    1
    33    19    20   ar
    34    19    21   ar
    35    34    35   ar
    36    35    36   ar
    37    36    27   ar
    38    35    30   ar
    39     6     1    1
    40    10     7    1
    41    18    11   ar
    42    25    26    1
@<TRIPOS>MOLECULE
*****
 38 42 0 0 0
SMALL
GASTEIGER

@<TRIPOS>ATOM
      1 C         141.2651  138.1381  163.6108 C.3     1  UNL1        0.0080
      2 C         140.6871  137.8626  162.2543 C.3     1  UNL1        0.0177
      3 C         141.2773  138.5170  161.0405 C.3     1  UNL1        0.0721
      4 N         142.4456  139.4470  161.1831 N.3     1  UNL1       -0.2736
      5 C         143.0236  139.7225  162.5395 C.3     1  UNL1        0.0776
      6 C         142.4334  139.0681  163.7534 C.3     1  UNL1        0.0525
      7 C         143.0358  140.1014  159.9693 C.3     1  UNL1        0.0582
      8 C         143.2714  139.6838  158.5480 C.3     1  UNL1        0.0204
      9 C         143.8705  141.0269  158.2527 C.3     1  UNL1        0.0252
     10 C         143.6349  141.4445  159.6740 C.3     1  UNL1        0.0204
     11 C         144.4607  141.6813  157.0389 C.ar    1  UNL1       -0.0180
     12 C         143.5626  142.3000  156.0090 C.ar    1  UNL1        0.0255
     13 C         144.1528  142.9544  154.7951 C.ar    1  UNL1        0.1421
     14 F         143.2548  143.5731  153.7652 F       1  UNL1       -0.2041
     15 C         145.6411  142.9902  154.6112 C.ar    1  UNL1        0.0592
     16 C         146.5391  142.3715  155.6412 C.ar    1  UNL1        0.1421
     17 F         148.0274  142.4073  155.4573 F       1  UNL1       -0.2041
     18 C         145.9489  141.7171  156.8550 C.ar    1  UNL1        0.0255
     19 C         143.0114  139.3436  165.1098 C.2     1  UNL1        0.0513
     20 O         142.8538  140.6999  165.7308 O.co2   1  UNL1       -0.5491
     21 O         143.7472  138.2629  165.8453 O.co2   1  UNL1       -0.5491
     22 C         140.6749  137.4837  164.8246 C.3     1  UNL1        0.0033
     23 C         139.1869  137.3459  164.9535 C.3     1  UNL1        0.0338
     24 C         138.3912  138.4164  165.6399 C.3     1  UNL1        0.1328
     25 O         137.4058  138.0491  166.7095 O.3     1  UNL1       -0.3801
     26 H         137.4067  137.0871  166.8334 H       1  UNL1        0.2108
     27 C         140.6233  141.2001  168.3819 C.ar    1  UNL1        0.1388
     28 C         140.8131  142.6378  167.9987 C.ar    1  UNL1        0.0384
     29 C         140.2588  143.1477  166.7014 C.ar    1  UNL1        0.0222
     30 C         139.5148  142.2198  165.7874 C.ar    1  UNL1        0.0813
     31 N         138.9606  142.7296  164.4902 N.ar    1  UNL1       -0.2439
     32 C         138.2165  141.8018  163.5762 C.ar    1  UNL1        0.0986
     33 C         138.0267  140.3640  163.9594 C.ar    1  UNL1        0.0187
     34 C         138.5810  139.8541  165.2567 C.ar    1  UNL1        0.0073
     35 C         139.3250  140.7821  166.1707 C.ar    1  UNL1        0.0190
     36 C         139.8793  140.2722  167.4679 C.ar    1  UNL1        0.0382
     37 C         140.2586  140.0988  170.7066 C.3     1  UNL1        0.2525
     38 O         141.1776  140.6902  169.6792 O.3     1  UNL1       -0.4714
@<TRIPOS>UNITY_ATOM_ATTR
20 1
charge -1
@<TRIPOS>BOND
     1    37    38    1
     2    38    27    1
     3    27    28   ar
     4    28    29   ar
     5    29    30   ar
     6    30    31   ar
     7    31    32   ar
     8    32    33   ar
     9    33    34   ar
    10    34    24    1
    11    24    25    1
    12    24    23    1
    13    23    22    1
    14     1    22    1
    15     1     2    1
    16     2     3    1
    17     3     4    1
    18     4     7    1
    19     7     8    1
    20     8     9    1
    21     9    11    1
    22    11    12   ar
    23    12    13   ar
    24    13    14    1
    25    13    15   ar
    26    15    16   ar
    27    16    17    1
    28    16    18   ar
    29     9    10    1
    30     4     5    1
    31     5     6    1
    32     6    19    1
    33    19    20   ar
    34    19    21   ar
    35    34    35   ar
    36    35    36   ar
    37    36    27   ar
    38    35    30   ar
    39     6     1    1
    40    10     7    1
    41    18    11   ar
    42    25    26    1
@<TRIPOS>MOLECULE
*****
 38 42 0 0 0
SMALL
GASTEIGER

@<TRIPOS>ATOM
      1 C         143.7165  142.8676  161.8469 C.3     1  UNL1        0.0080
      2 C         142.9686  143.1256  160.5724 C.3     1  UNL1        0.0177
      3 C         142.7426  142.0093  159.5963 C.3     1  UNL1        0.0721
      4 N         143.2645  140.6350  159.8946 N.3     1  UNL1       -0.2736
      5 C         144.0123  140.3770  161.1690 C.3     1  UNL1        0.0776
      6 C         144.2383  141.4933  162.1452 C.3     1  UNL1        0.0525
      7 C         143.0385  139.5187  158.9186 C.3     1  UNL1        0.0582
      8 C         142.6849  138.0654  159.0325 C.3     1  UNL1        0.0204
      9 C         142.7189  137.9398  157.5381 C.3     1  UNL1        0.0252
     10 C         143.0725  139.3931  157.4242 C.3     1  UNL1        0.0204
     11 C         142.4929  136.8235  156.5621 C.ar    1  UNL1       -0.0180
     12 C         141.3507  136.8949  155.5925 C.ar    1  UNL1        0.0255
     13 C         141.1246  135.7785  154.6163 C.ar    1  UNL1        0.1421
     14 F         139.9824  135.8498  153.6468 F       1  UNL1       -0.2041
     15 C         142.0409  134.5909  154.6099 C.ar    1  UNL1        0.0592
     16 C         143.1832  134.5196  155.5795 C.ar    1  UNL1        0.1421
     17 F         144.0995  133.3320  155.5730 F       1  UNL1       -0.2041
     18 C         143.4092  135.6359  156.5556 C.ar    1  UNL1        0.0255
     19 C         144.9861  141.2353  163.4196 C.2     1  UNL1        0.0513
     20 O         146.4311  141.6218  163.5326 O.co2   1  UNL1       -0.5491
     21 O         144.2890  140.5909  164.5810 O.co2   1  UNL1       -0.5491
     22 C         143.9424  143.9839  162.8229 C.3     1  UNL1        0.0033
     23 C         142.8345  144.4170  163.7366 C.3     1  UNL1        0.0338
     24 C         141.7986  143.4272  164.1808 C.3     1  UNL1        0.1328
     25 O         142.1178  142.4444  165.2681 O.3     1  UNL1       -0.3801
     26 H         143.0283  142.5833  165.5725 H       1  UNL1        0.2108
     27 C         140.2884  139.7036  162.1550 C.ar    1  UNL1        0.1388
     28 C         138.9333  139.6967  161.5120 C.ar    1  UNL1        0.0384
     29 C         138.0815  140.9310  161.5442 C.ar    1  UNL1        0.0222
     30 C         138.5849  142.1722  162.2194 C.ar    1  UNL1        0.0813
     31 N         137.7332  143.4065  162.2516 N.ar    1  UNL1       -0.2439
     32 C         138.2365  144.6476  162.9269 C.ar    1  UNL1        0.0986
     33 C         139.5917  144.6546  163.5700 C.ar    1  UNL1        0.0187
     34 C         140.4435  143.4203  163.5378 C.ar    1  UNL1        0.0073
     35 C         139.9400  142.1791  162.8625 C.ar    1  UNL1        0.0190
     36 C         140.7918  140.9448  162.8303 C.ar    1  UNL1        0.0382
     37 C         140.9205  137.3800  163.1303 C.3     1  UNL1        0.2525
     38 O         141.1402  138.4693  162.1228 O.3     1  UNL1       -0.4714
@<TRIPOS>UNITY_ATOM_ATTR
20 1
charge -1
@<TRIPOS>BOND
     1    37    38    1
     2    38    27    1
     3    27    28   ar
     4    28    29   ar
     5    29    30   ar
     6    30    31   ar
     7    31    32   ar
     8    32    33   ar
     9    33    34   ar
    10    34    24    1
    11    24    25    1
    12    24    23    1
    13    23    22    1
    14     1    22    1
    15     1     2    1
    16     2     3    1
    17     3     4    1
    18     4     7    1
    19     7     8    1
    20     8     9    1
    21     9    11    1
    22    11    12   ar
    23    12    13   ar
    24    13    14    1
    25    13    15   ar
    26    15    16   ar
    27    16    17    1
    28    16    18   ar
    29     9    10    1
    30     4     5    1
    31     5     6    1
    32     6    19    1
    33    19    20   ar
    34    19    21   ar
    35    34    35   ar
    36    35    36   ar
    37    36    27   ar
    38    35    30   ar
    39     6     1    1
    40    10     7    1
    41    18    11   ar
    42    25    26    1
@<TRIPOS>MOLECULE
*****
 38 42 0 0 0
SMALL
GASTEIGER

@<TRIPOS>ATOM
      1 C         140.7291  143.2031  162.7564 C.3     1  UNL1        0.0080
      2 C         142.1007  142.7256  162.3813 C.3     1  UNL1        0.0177
      3 C         142.2652  141.6665  161.3320 C.3     1  UNL1        0.0721
      4 N         141.0582  141.0849  160.6576 N.3     1  UNL1       -0.2736
      5 C         139.6866  141.5624  161.0327 C.3     1  UNL1        0.0776
      6 C         139.5220  142.6215  162.0821 C.3     1  UNL1        0.0525
      7 C         141.2227  140.0258  159.6083 C.3     1  UNL1        0.0582
      8 C         140.8297  138.5833  159.4864 C.3     1  UNL1        0.0204
      9 C         141.4553  138.5279  158.1242 C.3     1  UNL1        0.0252
     10 C         141.8483  139.9704  158.2461 C.3     1  UNL1        0.0204
     11 C         141.6198  137.4688  157.0748 C.ar    1  UNL1       -0.0180
     12 C         142.7877  136.5294  157.1340 C.ar    1  UNL1        0.0255
     13 C         142.9522  135.4702  156.0846 C.ar    1  UNL1        0.1421
     14 F         144.1201  134.5308  156.1438 F       1  UNL1       -0.2041
     15 C         141.9489  135.3505  154.9760 C.ar    1  UNL1        0.0592
     16 C         140.7809  136.2900  154.9169 C.ar    1  UNL1        0.1421
     17 F         139.7776  136.1703  153.8083 F       1  UNL1       -0.2041
     18 C         140.6164  137.3491  155.9663 C.ar    1  UNL1        0.0255
     19 C         138.1504  143.0990  162.4572 C.2     1  UNL1        0.0513
     20 O         137.1438  142.1321  163.0064 O.co2   1  UNL1       -0.5491
     21 O         137.7855  144.5435  162.2830 O.co2   1  UNL1       -0.5491
     22 C         140.5646  144.2622  163.8058 C.3     1  UNL1        0.0033
     23 C         140.1926  143.8780  165.2072 C.3     1  UNL1        0.0338
     24 C         141.0483  142.9124  165.9724 C.3     1  UNL1        0.1328
     25 O         142.5235  142.8459  165.7090 O.3     1  UNL1       -0.3801
     26 H         142.7583  143.4879  165.0208 H       1  UNL1        0.2108
     27 C         138.7472  139.2671  164.6816 C.ar    1  UNL1        0.1388
     28 C         138.1277  138.3681  165.7101 C.ar    1  UNL1        0.0384
     29 C         138.2752  138.6842  167.1690 C.ar    1  UNL1        0.0222
     30 C         139.0422  139.8993  167.5993 C.ar    1  UNL1        0.0813
     31 N         139.1897  140.2155  169.0582 N.ar    1  UNL1       -0.2439
     32 C         139.9567  141.4306  169.4885 C.ar    1  UNL1        0.0986
     33 C         140.5762  142.3296  168.4599 C.ar    1  UNL1        0.0187
     34 C         140.4288  142.0135  167.0010 C.ar    1  UNL1        0.0073
     35 C         139.6617  140.7983  166.5707 C.ar    1  UNL1        0.0190
     36 C         139.5142  140.4822  165.1119 C.ar    1  UNL1        0.0382
     37 C         139.3712  137.8146  162.6198 C.3     1  UNL1        0.2525
     38 O         138.5998  138.9509  163.2227 O.3     1  UNL1       -0.4714
@<TRIPOS>UNITY_ATOM_ATTR
20 1
charge -1
@<TRIPOS>BOND
     1    37    38    1
     2    38    27    1
     3    27    28   ar
     4    28    29   ar
     5    29    30   ar
     6    30    31   ar
     7    31    32   ar
     8    32    33   ar
     9    33    34   ar
    10    34    24    1
    11    24    25    1
    12    24    23    1
    13    23    22    1
    14     1    22    1
    15     1     2    1
    16     2     3    1
    17     3     4    1
    18     4     7    1
    19     7     8    1
    20     8     9    1
    21     9    11    1
    22    11    12   ar
    23    12    13   ar
    24    13    14    1
    25    13    15   ar
    26    15    16   ar
    27    16    17    1
    28    16    18   ar
    29     9    10    1
    30     4     5    1
    31     5     6    1
    32     6    19    1
    33    19    20   ar
    34    19    21   ar
    35    34    35   ar
    36    35    36   ar
    37    36    27   ar
    38    35    30   ar
    39     6     1    1
    40    10     7    1
    41    18    11   ar
    42    25    26    1
@<TRIPOS>MOLECULE
*****
 38 42 0 0 0
SMALL
GASTEIGER

@<TRIPOS>ATOM
      1 C         140.7876  142.8918  164.8786 C.3     1  UNL1        0.0080
      2 C         142.2564  143.1760  164.7680 C.3     1  UNL1        0.0177
      3 C         142.9347  143.1086  163.4318 C.3     1  UNL1        0.0721
      4 N         142.1444  142.7572  162.2063 N.3     1  UNL1       -0.2736
      5 C         140.6757  142.4731  162.3169 C.3     1  UNL1        0.0776
      6 C         139.9973  142.5404  163.6531 C.3     1  UNL1        0.0525
      7 C         142.8227  142.6899  160.8702 C.3     1  UNL1        0.0582
      8 C         142.3781  142.3931  159.4687 C.3     1  UNL1        0.0204
      9 C         143.7820  142.5946  158.9805 C.3     1  UNL1        0.0252
     10 C         144.2267  142.8914  160.3820 C.3     1  UNL1        0.0204
     11 C         144.4604  142.5273  157.6444 C.ar    1  UNL1       -0.0180
     12 C         145.9391  142.2885  157.5652 C.ar    1  UNL1        0.0255
     13 C         146.6175  142.2211  156.2290 C.ar    1  UNL1        0.1421
     14 F         148.0962  141.9823  156.1499 F       1  UNL1       -0.2041
     15 C         145.8171  142.3927  154.9720 C.ar    1  UNL1        0.0592
     16 C         144.3383  142.6315  155.0513 C.ar    1  UNL1        0.1421
     17 F         143.5379  142.8030  153.7943 F       1  UNL1       -0.2041
     18 C         143.6600  142.6988  156.3874 C.ar    1  UNL1        0.0255
     19 C         138.5286  142.2563  163.7637 C.2     1  UNL1        0.0513
     20 O         138.0479  140.8445  163.9235 O.co2   1  UNL1       -0.5491
     21 O         137.5408  143.3840  163.7146 O.co2   1  UNL1       -0.5491
     22 C         140.1093  142.9592  166.2148 C.3     1  UNL1        0.0033
     23 C         140.7783  142.3793  167.4256 C.3     1  UNL1        0.0338
     24 C         141.1764  140.9331  167.4422 C.3     1  UNL1        0.1328
     25 O         142.4460  140.5125  168.1212 O.3     1  UNL1       -0.3801
     26 H         142.8864  141.2918  168.4949 H       1  UNL1        0.2108
     27 C         142.6609  138.7241  163.8137 C.ar    1  UNL1        0.1388
     28 C         141.7894  137.6986  163.1513 C.ar    1  UNL1        0.0384
     29 C         140.4230  137.4095  163.6984 C.ar    1  UNL1        0.0222
     30 C         139.9281  138.1458  164.9079 C.ar    1  UNL1        0.0813
     31 N         138.5617  137.8567  165.4549 N.ar    1  UNL1       -0.2439
     32 C         138.0668  138.5931  166.6644 C.ar    1  UNL1        0.0986
     33 C         138.9384  139.6186  167.3269 C.ar    1  UNL1        0.0187
     34 C         140.3048  139.9077  166.7798 C.ar    1  UNL1        0.0073
     35 C         140.7997  139.1713  165.5702 C.ar    1  UNL1        0.0190
     36 C         142.1661  139.4604  165.0231 C.ar    1  UNL1        0.0382
     37 C         144.9286  139.9818  163.9732 C.3     1  UNL1        0.2525
     38 O         144.0274  139.0132  163.2666 O.3     1  UNL1       -0.4714
@<TRIPOS>UNITY_ATOM_ATTR
20 1
charge -1
@<TRIPOS>BOND
     1    37    38    1
     2    38    27    1
     3    27    28   ar
     4    28    29   ar
     5    29    30   ar
     6    30    31   ar
     7    31    32   ar
     8    32    33   ar
     9    33    34   ar
    10    34    24    1
    11    24    25    1
    12    24    23    1
    13    23    22    1
    14     1    22    1
    15     1     2    1
    16     2     3    1
    17     3     4    1
    18     4     7    1
    19     7     8    1
    20     8     9    1
    21     9    11    1
    22    11    12   ar
    23    12    13   ar
    24    13    14    1
    25    13    15   ar
    26    15    16   ar
    27    16    17    1
    28    16    18   ar
    29     9    10    1
    30     4     5    1
    31     5     6    1
    32     6    19    1
    33    19    20   ar
    34    19    21   ar
    35    34    35   ar
    36    35    36   ar
    37    36    27   ar
    38    35    30   ar
    39     6     1    1
    40    10     7    1
    41    18    11   ar
    42    25    26    1
