@<TRIPOS>MOLECULE
*****
 20 22 0 0 0
SMALL
GASTEIGER

@<TRIPOS>ATOM
      1 C         138.9470  140.1049  164.7963 C.ar    1  UNL1        0.1484
      2 C         138.1034  139.3685  165.7943 C.ar    1  UNL1        0.0796
      3 C         138.4723  139.3883  167.2480 C.ar    1  UNL1        0.2017
      4 O         137.6286  138.6518  168.2460 O.2     1  UNL1       -0.2864
      5 C         139.6849  140.1445  167.7039 C.ar    1  UNL1        0.0744
      6 C         140.0537  140.1643  169.1577 C.ar    1  UNL1        0.0176
      7 C         141.2663  140.9205  169.6135 C.ar    1  UNL1        0.0580
      8 CL        141.6352  140.9402  171.0674 Cl      1  UNL1       -0.0822
      9 C         142.1100  141.6569  168.6156 C.ar    1  UNL1        0.0145
     10 C         141.7411  141.6371  167.1618 C.ar    1  UNL1        0.0385
     11 C         140.5285  140.8809  166.7060 C.ar    1  UNL1        0.1483
     12 O         140.1596  140.8612  165.2522 O.2     1  UNL1       -0.4533
     13 C         137.8402  140.0455  160.4350 C.ar    1  UNL1        0.1387
     14 C         137.9431  138.7595  161.2002 C.ar    1  UNL1        0.0370
     15 C         138.3121  138.7793  162.6540 C.ar    1  UNL1        0.0061
     16 C         138.5781  140.0852  163.3425 C.ar    1  UNL1        0.0349
     17 C         138.4752  141.3711  162.5773 C.ar    1  UNL1        0.0061
     18 C         138.1063  141.3513  161.1235 C.ar    1  UNL1        0.0370
     19 C         138.1333  140.9745  158.0264 C.3     1  UNL1        0.2525
     20 O         137.4713  140.0257  158.9811 O.3     1  UNL1       -0.4714
@<TRIPOS>BOND
     1    19    20    1
     2    20    13    1
     3    13    14   ar
     4    14    15   ar
     5    15    16   ar
     6    16     1    1
     7     1     2   ar
     8     2     3   ar
     9     3     4    2
    10     3     5   ar
    11     5     6   ar
    12     6     7   ar
    13     7     8    1
    14     7     9   ar
    15     9    10   ar
    16    10    11   ar
    17    11    12   ar
    18    16    17   ar
    19    17    18   ar
    20    18    13   ar
    21    12     1   ar
    22    11     5   ar
@<TRIPOS>MOLECULE
*****
 20 22 0 0 0
SMALL
GASTEIGER

@<TRIPOS>ATOM
      1 C         142.1439  142.5382  166.1998 C.ar    1  UNL1        0.1484
      2 C         143.2543  143.1346  165.3865 C.ar    1  UNL1        0.0796
      3 C         142.9368  144.0408  164.2342 C.ar    1  UNL1        0.2017
      4 O         144.0472  144.6371  163.4209 O.2     1  UNL1       -0.2864
      5 C         141.5088  144.3507  163.8951 C.ar    1  UNL1        0.0744
      6 C         141.1913  145.2569  162.7427 C.ar    1  UNL1        0.0176
      7 C         139.7634  145.5668  162.4037 C.ar    1  UNL1        0.0580
      8 CL        139.4458  146.4730  161.2513 Cl      1  UNL1       -0.0822
      9 C         138.6530  144.9705  163.2170 C.ar    1  UNL1        0.0145
     10 C         138.9705  144.0643  164.3693 C.ar    1  UNL1        0.0385
     11 C         140.3984  143.7544  164.7084 C.ar    1  UNL1        0.1483
     12 O         140.7160  142.8481  165.8608 O.2     1  UNL1       -0.4533
     13 C         143.0966  139.8195  169.6568 C.ar    1  UNL1        0.1387
     14 C         142.4852  139.2580  168.4075 C.ar    1  UNL1        0.0370
     15 C         142.1677  140.1642  167.2552 C.ar    1  UNL1        0.0061
     16 C         142.4615  141.6320  167.3522 C.ar    1  UNL1        0.0349
     17 C         143.0729  142.1935  168.6015 C.ar    1  UNL1        0.0061
     18 C         143.3904  141.2872  169.7538 C.ar    1  UNL1        0.0370
     19 C         143.5346  137.4344  170.5892 C.3     1  UNL1        0.2525
     20 O         143.4142  138.9133  170.8092 O.3     1  UNL1       -0.4714
@<TRIPOS>BOND
     1    19    20    1
     2    20    13    1
     3    13    14   ar
     4    14    15   ar
     5    15    16   ar
     6    16     1    1
     7     1     2   ar
     8     2     3   ar
     9     3     4    2
    10     3     5   ar
    11     5     6   ar
    12     6     7   ar
    13     7     8    1
    14     7     9   ar
    15     9    10   ar
    16    10    11   ar
    17    11    12   ar
    18    16    17   ar
    19    17    18   ar
    20    18    13   ar
    21    12     1   ar
    22    11     5   ar
@<TRIPOS>MOLECULE
*****
 20 22 0 0 0
SMALL
GASTEIGER

@<TRIPOS>ATOM
      1 C         139.8404  142.5564  164.6967 C.ar    1  UNL1        0.1484
      2 C         139.4082  141.1211  164.6386 C.ar    1  UNL1        0.0796
      3 C         139.3839  140.2939  165.8896 C.ar    1  UNL1        0.2017
      4 O         138.9518  138.8587  165.8315 O.2     1  UNL1       -0.2864
      5 C         139.7918  140.9019  167.1989 C.ar    1  UNL1        0.0744
      6 C         139.7675  140.0747  168.4499 C.ar    1  UNL1        0.0176
      7 C         140.1754  140.6827  169.7590 C.ar    1  UNL1        0.0580
      8 CL        140.1512  139.8555  171.0101 Cl      1  UNL1       -0.0822
      9 C         140.6076  142.1179  169.8171 C.ar    1  UNL1        0.0145
     10 C         140.6318  142.9452  168.5661 C.ar    1  UNL1        0.0385
     11 C         140.2240  142.3371  167.2570 C.ar    1  UNL1        0.1483
     12 O         140.2482  143.1644  166.0059 O.2     1  UNL1       -0.4533
     13 C         139.9132  145.0380  160.9436 C.ar    1  UNL1        0.1387
     14 C         139.9518  145.7067  162.2857 C.ar    1  UNL1        0.0370
     15 C         139.9275  144.8795  163.5367 C.ar    1  UNL1        0.0061
     16 C         139.8646  143.3836  163.4456 C.ar    1  UNL1        0.0349
     17 C         139.8260  142.7149  162.1035 C.ar    1  UNL1        0.0061
     18 C         139.8502  143.5421  160.8525 C.ar    1  UNL1        0.0370
     19 C         140.3463  145.2434  158.3901 C.3     1  UNL1        0.2525
     20 O         139.9374  145.8652  159.6925 O.3     1  UNL1       -0.4714
@<TRIPOS>BOND
     1    19    20    1
     2    20    13    1
     3    13    14   ar
     4    14    15   ar
     5    15    16   ar
     6    16     1    1
     7     1     2   ar
     8     2     3   ar
     9     3     4    2
    10     3     5   ar
    11     5     6   ar
    12     6     7   ar
    13     7     8    1
    14     7     9   ar
    15     9    10   ar
    16    10    11   ar
    17    11    12   ar
    18    16    17   ar
    19    17    18   ar
    20    18    13   ar
    21    12     1   ar
    22    11     5   ar
@<TRIPOS>MOLECULE
*****
 20 22 0 0 0
SMALL
GASTEIGER

@<TRIPOS>ATOM
      1 C         140.0275  142.5578  164.6305 C.ar    1  UNL1        0.1484
      2 C         138.8976  143.4320  164.1732 C.ar    1  UNL1        0.0796
      3 C         138.9786  144.1303  162.8482 C.ar    1  UNL1        0.2017
      4 O         137.8487  145.0046  162.3908 O.2     1  UNL1       -0.2864
      5 C         140.1895  143.9545  161.9804 C.ar    1  UNL1        0.0744
      6 C         140.2704  144.6529  160.6554 C.ar    1  UNL1        0.0176
      7 C         141.4813  144.4770  159.7877 C.ar    1  UNL1        0.0580
      8 CL        141.5623  145.1754  158.4626 Cl      1  UNL1       -0.0822
      9 C         142.6111  143.6028  160.2451 C.ar    1  UNL1        0.0145
     10 C         142.5302  142.9045  161.5701 C.ar    1  UNL1        0.0385
     11 C         141.3193  143.0803  162.4377 C.ar    1  UNL1        0.1483
     12 O         141.2383  142.3819  163.7628 O.2     1  UNL1       -0.4533
     13 C         139.7844  140.4626  168.6056 C.ar    1  UNL1        0.1387
     14 C         139.2563  139.7933  167.3715 C.ar    1  UNL1        0.0370
     15 C         139.3373  140.4917  166.0465 C.ar    1  UNL1        0.0061
     16 C         139.9465  141.8594  165.9556 C.ar    1  UNL1        0.0349
     17 C         140.4746  142.5287  167.1897 C.ar    1  UNL1        0.0061
     18 C         140.3936  141.8303  168.5147 C.ar    1  UNL1        0.0370
     19 C         140.5478  140.2330  171.0784 C.3     1  UNL1        0.2525
     20 O         139.7034  139.7642  169.9307 O.3     1  UNL1       -0.4714
@<TRIPOS>BOND
     1    19    20    1
     2    20    13    1
     3    13    14   ar
     4    14    15   ar
     5    15    16   ar
     6    16     1    1
     7     1     2   ar
     8     2     3   ar
     9     3     4    2
    10     3     5   ar
    11     5     6   ar
    12     6     7   ar
    13     7     8    1
    14     7     9   ar
    15     9    10   ar
    16    10    11   ar
    17    11    12   ar
    18    16    17   ar
    19    17    18   ar
    20    18    13   ar
    21    12     1   ar
    22    11     5   ar
@<TRIPOS>MOLECULE
*****
 20 22 0 0 0
SMALL
GASTEIGER

@<TRIPOS>ATOM
      1 C         142.7043  139.9116  165.2590 C.ar    1  UNL1        0.1484
      2 C         143.1500  138.9507  166.3211 C.ar    1  UNL1        0.0796
      3 C         142.8206  139.2174  167.7599 C.ar    1  UNL1        0.2017
      4 O         143.2664  138.2565  168.8220 O.2     1  UNL1       -0.2864
      5 C         142.0454  140.4451  168.1368 C.ar    1  UNL1        0.0744
      6 C         141.7160  140.7118  169.5756 C.ar    1  UNL1        0.0176
      7 C         140.9409  141.9394  169.9524 C.ar    1  UNL1        0.0580
      8 CL        140.6114  142.2062  171.3913 Cl      1  UNL1       -0.0822
      9 C         140.4951  142.9004  168.8903 C.ar    1  UNL1        0.0145
     10 C         140.8245  142.6336  167.4515 C.ar    1  UNL1        0.0385
     11 C         141.5997  141.4060  167.0747 C.ar    1  UNL1        0.1483
     12 O         141.9291  141.1392  165.6358 O.2     1  UNL1       -0.4533
     13 C         143.6926  139.1114  160.9425 C.ar    1  UNL1        0.1387
     14 C         144.1980  140.3564  161.6092 C.ar    1  UNL1        0.0370
     15 C         143.8685  140.6231  163.0480 C.ar    1  UNL1        0.0061
     16 C         143.0337  139.6448  163.8201 C.ar    1  UNL1        0.0349
     17 C         142.5284  138.3998  163.1534 C.ar    1  UNL1        0.0061
     18 C         142.8579  138.1331  161.7146 C.ar    1  UNL1        0.0370
     19 C         142.9454  138.9171  158.4617 C.3     1  UNL1        0.2525
     20 O         144.0221  138.8446  159.5036 O.3     1  UNL1       -0.4714
@<TRIPOS>BOND
     1    19    20    1
     2    20    13    1
     3    13    14   ar
     4    14    15   ar
     5    15    16   ar
     6    16     1    1
     7     1     2   ar
     8     2     3   ar
     9     3     4    2
    10     3     5   ar
    11     5     6   ar
    12     6     7   ar
    13     7     8    1
    14     7     9   ar
    15     9    10   ar
    16    10    11   ar
    17    11    12   ar
    18    16    17   ar
    19    17    18   ar
    20    18    13   ar
    21    12     1   ar
    22    11     5   ar
@<TRIPOS>MOLECULE
*****
 20 22 0 0 0
SMALL
GASTEIGER

@<TRIPOS>ATOM
      1 C         141.2659  139.0031  163.8551 C.ar    1  UNL1        0.1484
      2 C         139.8063  139.2479  164.0997 C.ar    1  UNL1        0.0796
      3 C         139.3183  139.5490  165.4857 C.ar    1  UNL1        0.2017
      4 O         137.8588  139.7938  165.7303 O.2     1  UNL1       -0.2864
      5 C         140.2899  139.6054  166.6272 C.ar    1  UNL1        0.0744
      6 C         139.8018  139.9066  168.0133 C.ar    1  UNL1        0.0176
      7 C         140.7734  139.9630  169.1547 C.ar    1  UNL1        0.0580
      8 CL        140.2854  140.2642  170.5408 Cl      1  UNL1       -0.0822
      9 C         142.2329  139.7182  168.9101 C.ar    1  UNL1        0.0145
     10 C         142.7209  139.4171  167.5241 C.ar    1  UNL1        0.0385
     11 C         141.7494  139.3607  166.3827 C.ar    1  UNL1        0.1483
     12 O         142.2374  139.0595  164.9965 O.2     1  UNL1       -0.4533
     13 C         142.7299  138.0996  159.6970 C.ar    1  UNL1        0.1387
     14 C         143.6235  137.8543  160.8765 C.ar    1  UNL1        0.0370
     15 C         143.1354  138.1555  162.2625 C.ar    1  UNL1        0.0061
     16 C         141.7539  138.7019  162.4690 C.ar    1  UNL1        0.0349
     17 C         140.8603  138.9473  161.2895 C.ar    1  UNL1        0.0061
     18 C         141.3483  138.6461  159.9035 C.ar    1  UNL1        0.0370
     19 C         142.2774  137.2252  157.2927 C.3     1  UNL1        0.2525
     20 O         143.2179  137.7984  158.3109 O.3     1  UNL1       -0.4714
@<TRIPOS>BOND
     1    19    20    1
     2    20    13    1
     3    13    14   ar
     4    14    15   ar
     5    15    16   ar
     6    16     1    1
     7     1     2   ar
     8     2     3   ar
     9     3     4    2
    10     3     5   ar
    11     5     6   ar
    12     6     7   ar
    13     7     8    1
    14     7     9   ar
    15     9    10   ar
    16    10    11   ar
    17    11    12   ar
    18    16    17   ar
    19    17    18   ar
    20    18    13   ar
    21    12     1   ar
    22    11     5   ar
@<TRIPOS>MOLECULE
*****
 20 22 0 0 0
SMALL
GASTEIGER

@<TRIPOS>ATOM
      1 C         141.4263  143.8209  163.3506 C.ar    1  UNL1        0.1484
      2 C         140.4395  144.9094  163.0485 C.ar    1  UNL1        0.0796
      3 C         140.3158  145.4432  161.6522 C.ar    1  UNL1        0.2017
      4 O         139.3289  146.5317  161.3501 O.2     1  UNL1       -0.2864
      5 C         141.1790  144.8886  160.5579 C.ar    1  UNL1        0.0744
      6 C         141.0553  145.4224  159.1617 C.ar    1  UNL1        0.0176
      7 C         141.9184  144.8678  158.0675 C.ar    1  UNL1        0.0580
      8 CL        141.7948  145.4016  156.6711 Cl      1  UNL1       -0.0822
      9 C         142.9053  143.7793  158.3696 C.ar    1  UNL1        0.0145
     10 C         143.0290  143.2454  159.7659 C.ar    1  UNL1        0.0385
     11 C         142.1658  143.8001  160.8600 C.ar    1  UNL1        0.1483
     12 O         142.2895  143.2662  162.2564 O.2     1  UNL1       -0.4533
     13 C         141.7974  142.2194  167.5396 C.ar    1  UNL1        0.1387
     14 C         142.9973  142.2519  166.6401 C.ar    1  UNL1        0.0370
     15 C         142.8736  142.7858  165.2438 C.ar    1  UNL1        0.0061
     16 C         141.5500  143.2870  164.7470 C.ar    1  UNL1        0.0349
     17 C         140.3501  143.2545  165.6465 C.ar    1  UNL1        0.0061
     18 C         140.4738  142.7206  167.0428 C.ar    1  UNL1        0.0370
     19 C         142.7464  140.4612  169.2004 C.3     1  UNL1        0.2525
     20 O         141.9211  141.6855  168.9359 O.3     1  UNL1       -0.4714
@<TRIPOS>BOND
     1    19    20    1
     2    20    13    1
     3    13    14   ar
     4    14    15   ar
     5    15    16   ar
     6    16     1    1
     7     1     2   ar
     8     2     3   ar
     9     3     4    2
    10     3     5   ar
    11     5     6   ar
    12     6     7   ar
    13     7     8    1
    14     7     9   ar
    15     9    10   ar
    16    10    11   ar
    17    11    12   ar
    18    16    17   ar
    19    17    18   ar
    20    18    13   ar
    21    12     1   ar
    22    11     5   ar
@<TRIPOS>MOLECULE
*****
 20 22 0 0 0
SMALL
GASTEIGER

@<TRIPOS>ATOM
      1 C         139.2720  141.3612  164.7628 C.ar    1  UNL1        0.1484
      2 C         138.7174  142.6306  164.1875 C.ar    1  UNL1        0.0796
      3 C         138.3774  142.7072  162.7286 C.ar    1  UNL1        0.2017
      4 O         137.8228  143.9766  162.1534 O.2     1  UNL1       -0.2864
      5 C         138.5919  141.5142  161.8449 C.ar    1  UNL1        0.0744
      6 C         138.2519  141.5908  160.3860 C.ar    1  UNL1        0.0176
      7 C         138.4665  140.3979  159.5023 C.ar    1  UNL1        0.0580
      8 CL        138.1265  140.4744  158.0433 Cl      1  UNL1       -0.0822
      9 C         139.0211  139.1284  160.0776 C.ar    1  UNL1        0.0145
     10 C         139.3611  139.0519  161.5365 C.ar    1  UNL1        0.0385
     11 C         139.1465  140.2448  162.4201 C.ar    1  UNL1        0.1483
     12 O         139.4866  140.1683  163.8791 O.2     1  UNL1       -0.4533
     13 C         140.2919  141.1316  169.1396 C.ar    1  UNL1        0.1387
     14 C         139.5741  139.9938  168.4762 C.ar    1  UNL1        0.0370
     15 C         139.2342  140.0704  167.0172 C.ar    1  UNL1        0.0061
     16 C         139.6120  141.2847  166.2218 C.ar    1  UNL1        0.0349
     17 C         140.3298  142.4224  166.8853 C.ar    1  UNL1        0.0061
     18 C         140.6697  142.3459  168.3442 C.ar    1  UNL1        0.0370
     19 C         141.7414  141.8972  171.1553 C.3     1  UNL1        0.2525
     20 O         140.6319  141.0551  170.5987 O.3     1  UNL1       -0.4714
@<TRIPOS>BOND
     1    19    20    1
     2    20    13    1
     3    13    14   ar
     4    14    15   ar
     5    15    16   ar
     6    16     1    1
     7     1     2   ar
     8     2     3   ar
     9     3     4    2
    10     3     5   ar
    11     5     6   ar
    12     6     7   ar
    13     7     8    1
    14     7     9   ar
    15     9    10   ar
    16    10    11   ar
    17    11    12   ar
    18    16    17   ar
    19    17    18   ar
    20    18    13   ar
    21    12     1   ar
    22    11     5   ar
@<TRIPOS>MOLECULE
*****
 20 22 0 0 0
SMALL
GASTEIGER

@<TRIPOS>ATOM
      1 C         141.1235  139.1937  164.3668 C.ar    1  UNL1        0.1484
      2 C         142.3907  138.5144  164.7943 C.ar    1  UNL1        0.0796
      3 C         142.8724  138.6470  166.2086 C.ar    1  UNL1        0.2017
      4 O         144.1396  137.9677  166.6361 O.2     1  UNL1       -0.2864
      5 C         142.0870  139.4589  167.1955 C.ar    1  UNL1        0.0744
      6 C         142.5687  139.5915  168.6098 C.ar    1  UNL1        0.0176
      7 C         141.7833  140.4034  169.5966 C.ar    1  UNL1        0.0580
      8 CL        142.2650  140.5361  171.0110 Cl      1  UNL1       -0.0822
      9 C         140.5161  141.0828  169.1691 C.ar    1  UNL1        0.0145
     10 C         140.0343  140.9502  167.7548 C.ar    1  UNL1        0.0385
     11 C         140.8198  140.1382  166.7680 C.ar    1  UNL1        0.1483
     12 O         140.3381  140.0056  165.3536 O.2     1  UNL1       -0.4533
     13 C         139.6785  138.7959  160.1238 C.ar    1  UNL1        0.1387
     14 C         140.8004  139.7368  160.4488 C.ar    1  UNL1        0.0370
     15 C         141.2821  139.8694  161.8631 C.ar    1  UNL1        0.0061
     16 C         140.6418  139.0610  162.9524 C.ar    1  UNL1        0.0349
     17 C         139.5198  138.1201  162.6274 C.ar    1  UNL1        0.0061
     18 C         139.0381  137.9875  161.2131 C.ar    1  UNL1        0.0370
     19 C         140.0824  138.0415  157.6706 C.3     1  UNL1        0.2525
     20 O         139.1967  138.6632  158.7094 O.3     1  UNL1       -0.4714
@<TRIPOS>BOND
     1    19    20    1
     2    20    13    1
     3    13    14   ar
     4    14    15   ar
     5    15    16   ar
     6    16     1    1
     7     1     2   ar
     8     2     3   ar
     9     3     4    2
    10     3     5   ar
    11     5     6   ar
    12     6     7   ar
    13     7     8    1
    14     7     9   ar
    15     9    10   ar
    16    10    11   ar
    17    11    12   ar
    18    16    17   ar
    19    17    18   ar
    20    18    13   ar
    21    12     1   ar
    22    11     5   ar
