@<TRIPOS>MOLECULE
*****
 32 34 0 0 0
SMALL
GASTEIGER

@<TRIPOS>ATOM
      1 C         139.5751  140.8310  165.7824 C.ar    1  UNL1        0.1079
      2 N         140.4155  141.9303  166.3613 N.ar    1  UNL1       -0.1681
      3 N         140.5441  141.6881  167.8360 N.ar    1  UNL1       -0.2399
      4 C         139.7830  140.4390  168.1686 C.ar    1  UNL1        0.1280
      5 N         139.6451  139.8271  169.5311 N.pl3   1  UNL1       -0.3427
      6 C         139.1842  139.9092  166.8994 C.ar    1  UNL1        0.1031
      7 H         140.0775  140.2511  170.3073 H       1  UNL1        0.1437
      8 H         139.1221  139.0014  169.6492 H       1  UNL1        0.1437
      9 C         138.9851  139.5572  159.0534 C.ar    1  UNL1        0.1386
     10 C         140.3070  139.0392  159.5372 C.ar    1  UNL1        0.0369
     11 C         140.6894  139.1903  160.9797 C.ar    1  UNL1        0.0031
     12 C         139.7499  139.8595  161.9385 C.ar    1  UNL1        0.0002
     13 C         140.1323  140.0106  163.3811 C.ar    1  UNL1        0.0016
     14 C         139.1927  140.6798  164.3399 C.ar    1  UNL1        0.0196
     15 C         137.8707  141.1980  163.8562 C.ar    1  UNL1        0.0016
     16 C         137.4883  141.0468  162.4136 C.ar    1  UNL1        0.0001
     17 C         138.4280  140.3776  161.4548 C.ar    1  UNL1        0.0030
     18 C         138.0456  140.2264  160.0122 C.ar    1  UNL1        0.0369
     19 O         138.6027  139.4061  157.6109 O.3     1  UNL1       -0.4755
     20 C         139.6244  137.3851  156.3375 C.3     1  UNL1        0.0512
     21 C         139.5920  138.8566  156.6263 C.3     1  UNL1        0.2055
     22 C         138.3423  138.6746  166.7700 C.2     1  UNL1        0.2470
     23 N         138.5389  137.7515  165.6042 N.am    1  UNL1       -0.3252
     24 O         137.3036  138.3630  167.8065 O.2     1  UNL1       -0.2702
     25 H         139.2205  137.9560  164.9239 H       1  UNL1        0.1453
     26 H         137.9862  136.9412  165.5193 H       1  UNL1        0.1453
     27 C         141.3007  142.5445  168.8076 C.3     1  UNL1        0.1091
     28 C         142.7867  142.3917  168.9429 C.3     1  UNL1        0.0265
     29 C         140.5712  143.5538  169.6438 C.3     1  UNL1        0.0561
     30 C         139.7690  143.1062  170.8296 C.3     1  UNL1        0.1392
     31 O         140.3574  142.1351  171.8098 O.3     1  UNL1       -0.3819
     32 H         140.4947  141.2793  171.3744 H       1  UNL1        0.2104
@<TRIPOS>BOND
     1    20    21    1
     2    21    19    1
     3    19     9    1
     4     9    10   ar
     5    10    11   ar
     6    11    12   ar
     7    12    13   ar
     8    13    14   ar
     9    14     1    1
    10     1     2   ar
    11     2     3   ar
    12     3    27    1
    13    27    28    1
    14    27    29    1
    15    29    30    1
    16    30    31    1
    17     3     4   ar
    18     4     5    1
    19     4     6   ar
    20     6    22    1
    21    22    23   am
    22    22    24    2
    23    14    15   ar
    24    15    16   ar
    25    16    17   ar
    26    17    18   ar
    27    18     9   ar
    28    17    12   ar
    29     6     1   ar
    30    31    32    1
    31     5     7    1
    32     5     8    1
    33    23    25    1
    34    23    26    1
@<TRIPOS>MOLECULE
*****
 32 34 0 0 0
SMALL
GASTEIGER

@<TRIPOS>ATOM
      1 C         140.6104  140.4863  166.1339 C.ar    1  UNL1        0.1079
      2 N         141.3028  141.4620  167.0387 N.ar    1  UNL1       -0.1681
      3 N         140.6792  141.3560  168.3988 N.ar    1  UNL1       -0.2399
      4 C         139.6014  140.3148  168.3346 C.ar    1  UNL1        0.1280
      5 N         138.7207  139.8862  169.4707 N.pl3   1  UNL1       -0.3427
      6 C         139.5588  139.7772  166.9348 C.ar    1  UNL1        0.1031
      7 H         138.8252  140.3002  170.3578 H       1  UNL1        0.1437
      8 H         138.0381  139.1910  169.3292 H       1  UNL1        0.1437
      9 C         143.0077  138.7354  159.9341 C.ar    1  UNL1        0.1386
     10 C         143.8774  138.1184  160.9890 C.ar    1  UNL1        0.0369
     11 C         143.5719  138.3452  162.4400 C.ar    1  UNL1        0.0031
     12 C         142.3967  139.1890  162.8360 C.ar    1  UNL1        0.0002
     13 C         142.0911  139.4158  164.2869 C.ar    1  UNL1        0.0016
     14 C         140.9159  140.2595  164.6829 C.ar    1  UNL1        0.0196
     15 C         140.0461  140.8765  163.6280 C.ar    1  UNL1        0.0016
     16 C         140.3516  140.6497  162.1770 C.ar    1  UNL1        0.0001
     17 C         141.5269  139.8059  161.7811 C.ar    1  UNL1        0.0030
     18 C         141.8324  139.5791  160.3301 C.ar    1  UNL1        0.0369
     19 O         143.3132  138.5085  158.4832 O.3     1  UNL1       -0.4755
     20 C         143.0835  136.6337  156.6993 C.3     1  UNL1        0.0512
     21 C         142.4528  137.5869  157.6707 C.3     1  UNL1        0.2055
     22 C         138.6282  138.7169  166.4254 C.2     1  UNL1        0.2470
     23 N         139.0644  137.8056  165.3168 N.am    1  UNL1       -0.3252
     24 O         137.2611  138.5679  167.0247 O.2     1  UNL1       -0.2702
     25 H         139.9616  137.9033  164.9234 H       1  UNL1        0.1453
     26 H         138.4535  137.1097  164.9825 H       1  UNL1        0.1453
     27 C         141.0655  142.1514  169.6103 C.3     1  UNL1        0.1091
     28 C         140.5139  143.5322  169.8082 C.3     1  UNL1        0.0265
     29 C         142.0035  141.5661  170.6240 C.3     1  UNL1        0.0561
     30 C         142.9486  140.4711  170.2270 C.3     1  UNL1        0.1392
     31 O         143.6066  139.6297  171.2802 O.3     1  UNL1       -0.3819
     32 H         144.2080  140.1807  171.8052 H       1  UNL1        0.2104
@<TRIPOS>BOND
     1    20    21    1
     2    21    19    1
     3    19     9    1
     4     9    10   ar
     5    10    11   ar
     6    11    12   ar
     7    12    13   ar
     8    13    14   ar
     9    14     1    1
    10     1     2   ar
    11     2     3   ar
    12     3    27    1
    13    27    28    1
    14    27    29    1
    15    29    30    1
    16    30    31    1
    17     3     4   ar
    18     4     5    1
    19     4     6   ar
    20     6    22    1
    21    22    23   am
    22    22    24    2
    23    14    15   ar
    24    15    16   ar
    25    16    17   ar
    26    17    18   ar
    27    18     9   ar
    28    17    12   ar
    29     6     1   ar
    30    31    32    1
    31     5     7    1
    32     5     8    1
    33    23    25    1
    34    23    26    1
@<TRIPOS>MOLECULE
*****
 32 34 0 0 0
SMALL
GASTEIGER

@<TRIPOS>ATOM
      1 C         139.7654  141.7956  165.2967 C.ar    1  UNL1        0.1079
      2 N         140.3563  141.9556  166.6660 N.ar    1  UNL1       -0.1681
      3 N         139.8557  140.8297  167.5214 N.ar    1  UNL1       -0.2399
      4 C         138.9553  139.9738  166.6808 C.ar    1  UNL1        0.1280
      5 N         138.2368  138.7380  167.1352 N.pl3   1  UNL1       -0.3427
      6 C         138.8994  140.5707  165.3057 C.ar    1  UNL1        0.1031
      7 H         138.3370  138.4234  168.0627 H       1  UNL1        0.1437
      8 H         137.6652  138.2415  166.5060 H       1  UNL1        0.1437
      9 C         141.6143  144.9886  159.4970 C.ar    1  UNL1        0.1386
     10 C         142.2939  143.6529  159.5603 C.ar    1  UNL1        0.0369
     11 C         142.0600  142.7472  160.7328 C.ar    1  UNL1        0.0031
     12 C         141.1466  143.1771  161.8422 C.ar    1  UNL1        0.0002
     13 C         140.9127  142.2714  163.0147 C.ar    1  UNL1        0.0016
     14 C         139.9992  142.7013  164.1241 C.ar    1  UNL1        0.0196
     15 C         139.3196  144.0371  164.0609 C.ar    1  UNL1        0.0016
     16 C         139.5534  144.9428  162.8883 C.ar    1  UNL1        0.0001
     17 C         140.4670  144.5128  161.7789 C.ar    1  UNL1        0.0030
     18 C         140.7008  145.4186  160.6063 C.ar    1  UNL1        0.0369
     19 O         141.8482  145.8944  158.3244 O.3     1  UNL1       -0.4755
     20 C         140.2864  144.8009  156.5595 C.3     1  UNL1        0.0512
     21 C         140.8025  146.0245  157.2570 C.3     1  UNL1        0.2055
     22 C         138.1154  140.0367  164.1439 C.2     1  UNL1        0.2470
     23 N         137.0527  140.8806  163.5047 N.am    1  UNL1       -0.3252
     24 O         138.3940  138.6585  163.6211 O.2     1  UNL1       -0.2702
     25 H         136.8698  141.7850  163.8478 H       1  UNL1        0.1453
     26 H         136.5381  140.5299  162.7421 H       1  UNL1        0.1453
     27 C         140.1957  140.6000  168.9642 C.3     1  UNL1        0.1091
     28 C         141.3673  139.7380  169.3306 C.3     1  UNL1        0.0265
     29 C         139.3641  141.2323  170.0405 C.3     1  UNL1        0.0561
     30 C         139.8769  142.4354  170.7752 C.3     1  UNL1        0.1392
     31 O         140.6195  142.2650  172.0673 O.3     1  UNL1       -0.3819
     32 H         140.0195  141.9074  172.7403 H       1  UNL1        0.2104
@<TRIPOS>BOND
     1    20    21    1
     2    21    19    1
     3    19     9    1
     4     9    10   ar
     5    10    11   ar
     6    11    12   ar
     7    12    13   ar
     8    13    14   ar
     9    14     1    1
    10     1     2   ar
    11     2     3   ar
    12     3    27    1
    13    27    28    1
    14    27    29    1
    15    29    30    1
    16    30    31    1
    17     3     4   ar
    18     4     5    1
    19     4     6   ar
    20     6    22    1
    21    22    23   am
    22    22    24    2
    23    14    15   ar
    24    15    16   ar
    25    16    17   ar
    26    17    18   ar
    27    18     9   ar
    28    17    12   ar
    29     6     1   ar
    30    31    32    1
    31     5     7    1
    32     5     8    1
    33    23    25    1
    34    23    26    1
@<TRIPOS>MOLECULE
*****
 32 34 0 0 0
SMALL
GASTEIGER

@<TRIPOS>ATOM
      1 C         140.9623  139.5584  166.6285 C.ar    1  UNL1        0.1079
      2 N         141.9387  140.0763  167.6426 N.ar    1  UNL1       -0.1681
      3 N         141.1801  140.3910  168.8978 N.ar    1  UNL1       -0.2399
      4 C         139.7349  140.0676  168.6594 C.ar    1  UNL1        0.1280
      5 N         138.6201  140.2303  169.6497 N.pl3   1  UNL1       -0.3427
      6 C         139.6003  139.5530  167.2569 C.ar    1  UNL1        0.1031
      7 H         138.8092  140.5780  170.5511 H       1  UNL1        0.1437
      8 H         137.6992  139.9893  169.3982 H       1  UNL1        0.1437
      9 C         142.9540  138.7637  160.0976 C.ar    1  UNL1        0.1386
     10 C         143.3054  140.1490  160.5530 C.ar    1  UNL1        0.0369
     11 C         142.9774  140.5850  161.9503 C.ar    1  UNL1        0.0031
     12 C         142.2979  139.6357  162.8921 C.ar    1  UNL1        0.0002
     13 C         141.9698  140.0717  164.2894 C.ar    1  UNL1        0.0016
     14 C         141.2904  139.1224  165.2312 C.ar    1  UNL1        0.0196
     15 C         140.9389  137.7370  164.7758 C.ar    1  UNL1        0.0016
     16 C         141.2669  137.3011  163.3786 C.ar    1  UNL1        0.0001
     17 C         141.9464  138.2504  162.4367 C.ar    1  UNL1        0.0030
     18 C         142.2745  137.8144  161.0395 C.ar    1  UNL1        0.0369
     19 O         143.2820  138.3277  158.7004 O.3     1  UNL1       -0.4755
     20 C         142.4011  137.0371  156.6247 C.3     1  UNL1        0.0512
     21 C         142.1784  138.0262  157.7302 C.3     1  UNL1        0.2055
     22 C         138.3272  139.1108  166.5984 C.2     1  UNL1        0.2470
     23 N         137.4733  138.0612  167.2457 N.am    1  UNL1       -0.3252
     24 O         137.9080  139.7182  165.2924 O.2     1  UNL1       -0.2702
     25 H         137.7483  137.6625  168.1029 H       1  UNL1        0.1453
     26 H         136.6377  137.7709  166.8135 H       1  UNL1        0.1453
     27 C         141.7641  140.9338  170.1683 C.3     1  UNL1        0.1091
     28 C         142.8258  140.1627  170.8952 C.3     1  UNL1        0.0265
     29 C         141.2865  142.2477  170.7120 C.3     1  UNL1        0.0561
     30 C         141.0249  143.3941  169.7808 C.3     1  UNL1        0.1392
     31 O         140.1677  144.5417  170.2262 O.3     1  UNL1       -0.3819
     32 H         139.2585  144.2324  170.3622 H       1  UNL1        0.2104
@<TRIPOS>BOND
     1    20    21    1
     2    21    19    1
     3    19     9    1
     4     9    10   ar
     5    10    11   ar
     6    11    12   ar
     7    12    13   ar
     8    13    14   ar
     9    14     1    1
    10     1     2   ar
    11     2     3   ar
    12     3    27    1
    13    27    28    1
    14    27    29    1
    15    29    30    1
    16    30    31    1
    17     3     4   ar
    18     4     5    1
    19     4     6   ar
    20     6    22    1
    21    22    23   am
    22    22    24    2
    23    14    15   ar
    24    15    16   ar
    25    16    17   ar
    26    17    18   ar
    27    18     9   ar
    28    17    12   ar
    29     6     1   ar
    30    31    32    1
    31     5     7    1
    32     5     8    1
    33    23    25    1
    34    23    26    1
@<TRIPOS>MOLECULE
*****
 32 34 0 0 0
SMALL
GASTEIGER

@<TRIPOS>ATOM
      1 C         140.7371  139.5785  165.9995 C.ar    1  UNL1        0.1079
      2 N         139.8407  140.2563  166.9930 N.ar    1  UNL1       -0.1681
      3 N         140.5955  140.3904  168.2823 N.ar    1  UNL1       -0.2399
      4 C         141.9583  139.7955  168.0857 C.ar    1  UNL1        0.1280
      5 N         143.0432  139.7163  169.1185 N.pl3   1  UNL1       -0.3427
      6 C         142.0459  139.2937  166.6748 C.ar    1  UNL1        0.1031
      7 H         142.8898  140.0755  170.0222 H       1  UNL1        0.1437
      8 H         143.9087  139.3050  168.8927 H       1  UNL1        0.1437
      9 C         139.4452  139.2896  159.2543 C.ar    1  UNL1        0.1386
     10 C         139.9074  140.6723  159.6069 C.ar    1  UNL1        0.0369
     11 C         140.2582  141.0067  161.0265 C.ar    1  UNL1        0.0031
     12 C         140.1468  139.9582  162.0934 C.ar    1  UNL1        0.0002
     13 C         140.4976  140.2926  163.5130 C.ar    1  UNL1        0.0016
     14 C         140.3863  139.2442  164.5799 C.ar    1  UNL1        0.0196
     15 C         139.9241  137.8613  164.2273 C.ar    1  UNL1        0.0016
     16 C         139.5733  137.5270  162.8077 C.ar    1  UNL1        0.0001
     17 C         139.6847  138.5755  161.7408 C.ar    1  UNL1        0.0030
     18 C         139.3339  138.2412  160.3212 C.ar    1  UNL1        0.0369
     19 O         139.0945  138.9553  157.8347 O.3     1  UNL1       -0.4755
     20 C         141.0142  137.4785  156.8947 C.3     1  UNL1        0.0512
     21 C         140.1820  138.7247  156.8278 C.3     1  UNL1        0.2055
     22 C         143.2336  138.6246  166.0491 C.2     1  UNL1        0.2470
     23 N         143.5293  138.8297  164.5929 N.am    1  UNL1       -0.3252
     24 O         144.1258  137.7502  166.8796 O.2     1  UNL1       -0.2702
     25 H         142.9438  139.4035  164.0478 H       1  UNL1        0.1453
     26 H         144.3089  138.3905  164.1823 H       1  UNL1        0.1453
     27 C         140.0783  141.0105  169.5464 C.3     1  UNL1        0.1091
     28 C         138.8916  140.4141  170.2435 C.3     1  UNL1        0.0265
     29 C         140.7478  142.2273  170.1133 C.3     1  UNL1        0.0561
     30 C         141.7026  142.0912  171.2621 C.3     1  UNL1        0.1392
     31 O         142.0187  140.7343  171.8180 O.3     1  UNL1       -0.3819
     32 H         141.2222  140.3574  172.2235 H       1  UNL1        0.2104
@<TRIPOS>BOND
     1    20    21    1
     2    21    19    1
     3    19     9    1
     4     9    10   ar
     5    10    11   ar
     6    11    12   ar
     7    12    13   ar
     8    13    14   ar
     9    14     1    1
    10     1     2   ar
    11     2     3   ar
    12     3    27    1
    13    27    28    1
    14    27    29    1
    15    29    30    1
    16    30    31    1
    17     3     4   ar
    18     4     5    1
    19     4     6   ar
    20     6    22    1
    21    22    23   am
    22    22    24    2
    23    14    15   ar
    24    15    16   ar
    25    16    17   ar
    26    17    18   ar
    27    18     9   ar
    28    17    12   ar
    29     6     1   ar
    30    31    32    1
    31     5     7    1
    32     5     8    1
    33    23    25    1
    34    23    26    1
@<TRIPOS>MOLECULE
*****
 32 34 0 0 0
SMALL
GASTEIGER

@<TRIPOS>ATOM
      1 C         140.7082  141.6332  166.0605 C.ar    1  UNL1        0.1079
      2 N         141.5408  141.9084  167.2775 N.ar    1  UNL1       -0.1681
      3 N         140.9478  141.1480  168.4265 N.ar    1  UNL1       -0.2399
      4 C         139.7488  140.4028  167.9196 C.ar    1  UNL1        0.1280
      5 N         138.8547  139.5139  168.7322 N.pl3   1  UNL1       -0.3427
      6 C         139.6006  140.7027  166.4573 C.ar    1  UNL1        0.1031
      7 H         139.0345  139.3786  169.6907 H       1  UNL1        0.1437
      8 H         138.0881  139.0657  168.3072 H       1  UNL1        0.1437
      9 C         140.9998  145.1557  160.1650 C.ar    1  UNL1        0.1386
     10 C         140.1218  145.8912  161.1335 C.ar    1  UNL1        0.0369
     11 C         139.8879  145.3338  162.5063 C.ar    1  UNL1        0.0031
     12 C         140.5320  144.0409  162.9106 C.ar    1  UNL1        0.0002
     13 C         140.2981  143.4835  164.2834 C.ar    1  UNL1        0.0016
     14 C         140.9422  142.1906  164.6877 C.ar    1  UNL1        0.0196
     15 C         141.8202  141.4550  163.7191 C.ar    1  UNL1        0.0016
     16 C         142.0541  142.0124  162.3463 C.ar    1  UNL1        0.0001
     17 C         141.4100  143.3054  161.9421 C.ar    1  UNL1        0.0030
     18 C         141.6439  143.8628  160.5693 C.ar    1  UNL1        0.0369
     19 O         141.2337  145.7131  158.7922 O.3     1  UNL1       -0.4755
     20 C         140.0869  146.4676  156.5864 C.3     1  UNL1        0.0512
     21 C         140.2261  145.4791  157.7060 C.3     1  UNL1        0.2055
     22 C         138.5326  140.1662  165.5511 C.2     1  UNL1        0.2470
     23 N         137.7433  141.1029  164.6853 N.am    1  UNL1       -0.3252
     24 O         138.2537  138.6928  165.5105 O.2     1  UNL1       -0.2702
     25 H         137.9263  142.0699  164.7118 H       1  UNL1        0.1453
     26 H         137.0423  140.7508  164.0905 H       1  UNL1        0.1453
     27 C         141.4633  141.1351  169.8350 C.3     1  UNL1        0.1091
     28 C         142.3325  140.0066  170.3052 C.3     1  UNL1        0.0265
     29 C         141.1096  142.2506  170.7733 C.3     1  UNL1        0.0561
     30 C         139.9231  143.1229  170.4881 C.3     1  UNL1        0.1392
     31 O         140.1042  144.6015  170.3121 O.3     1  UNL1       -0.3819
     32 H         140.3962  144.9935  171.1499 H       1  UNL1        0.2104
@<TRIPOS>BOND
     1    20    21    1
     2    21    19    1
     3    19     9    1
     4     9    10   ar
     5    10    11   ar
     6    11    12   ar
     7    12    13   ar
     8    13    14   ar
     9    14     1    1
    10     1     2   ar
    11     2     3   ar
    12     3    27    1
    13    27    28    1
    14    27    29    1
    15    29    30    1
    16    30    31    1
    17     3     4   ar
    18     4     5    1
    19     4     6   ar
    20     6    22    1
    21    22    23   am
    22    22    24    2
    23    14    15   ar
    24    15    16   ar
    25    16    17   ar
    26    17    18   ar
    27    18     9   ar
    28    17    12   ar
    29     6     1   ar
    30    31    32    1
    31     5     7    1
    32     5     8    1
    33    23    25    1
    34    23    26    1
@<TRIPOS>MOLECULE
*****
 32 34 0 0 0
SMALL
GASTEIGER

@<TRIPOS>ATOM
      1 C         140.6086  141.7484  163.4457 C.ar    1  UNL1        0.1079
      2 N         141.7949  141.2166  162.6974 N.ar    1  UNL1       -0.1681
      3 N         142.0460  142.1183  161.5253 N.ar    1  UNL1       -0.2399
      4 C         141.0148  143.2074  161.5492 C.ar    1  UNL1        0.1280
      5 N         140.8933  144.3284  160.5599 N.pl3   1  UNL1       -0.3427
      6 C         140.1264  142.9789  162.7360 C.ar    1  UNL1        0.1031
      7 H         141.5277  144.3940  159.8099 H       1  UNL1        0.1437
      8 H         140.1791  144.9985  160.6605 H       1  UNL1        0.1437
      9 C         138.6064  139.8962  169.7553 C.ar    1  UNL1        0.1386
     10 C         139.5991  141.0154  169.8639 C.ar    1  UNL1        0.0369
     11 C         140.1981  141.6097  168.6237 C.ar    1  UNL1        0.0031
     12 C         139.8044  141.0848  167.2749 C.ar    1  UNL1        0.0002
     13 C         140.4034  141.6790  166.0347 C.ar    1  UNL1        0.0016
     14 C         140.0096  141.1541  164.6859 C.ar    1  UNL1        0.0196
     15 C         139.0169  140.0348  164.5772 C.ar    1  UNL1        0.0016
     16 C         138.4179  139.4405  165.8174 C.ar    1  UNL1        0.0001
     17 C         138.8117  139.9655  167.1662 C.ar    1  UNL1        0.0030
     18 C         138.2127  139.3713  168.4064 C.ar    1  UNL1        0.0369
     19 O         138.0074  139.3019  170.9954 O.3     1  UNL1       -0.4755
     20 C         136.0488  137.8339  171.8663 C.3     1  UNL1        0.0512
     21 C         136.5416  138.9875  171.0439 C.3     1  UNL1        0.2055
     22 C         138.9607  143.8310  163.1419 C.2     1  UNL1        0.2470
     23 N         137.7109  143.8366  162.3125 N.am    1  UNL1       -0.3252
     24 O         139.0447  144.6776  164.3774 O.2     1  UNL1       -0.2702
     25 H         137.6557  143.2810  161.5017 H       1  UNL1        0.1453
     26 H         136.9458  144.3960  162.5790 H       1  UNL1        0.1453
     27 C         143.1366  141.9590  160.5080 C.3     1  UNL1        0.1091
     28 C         142.8068  141.9832  159.0449 C.3     1  UNL1        0.0265
     29 C         144.5570  141.7754  160.9537 C.3     1  UNL1        0.0561
     30 C         145.0248  142.3895  162.2399 C.3     1  UNL1        0.1392
     31 O         146.2868  141.9025  162.8881 O.3     1  UNL1       -0.3819
     32 H         146.1671  140.9853  163.1803 H       1  UNL1        0.2104
@<TRIPOS>BOND
     1    20    21    1
     2    21    19    1
     3    19     9    1
     4     9    10   ar
     5    10    11   ar
     6    11    12   ar
     7    12    13   ar
     8    13    14   ar
     9    14     1    1
    10     1     2   ar
    11     2     3   ar
    12     3    27    1
    13    27    28    1
    14    27    29    1
    15    29    30    1
    16    30    31    1
    17     3     4   ar
    18     4     5    1
    19     4     6   ar
    20     6    22    1
    21    22    23   am
    22    22    24    2
    23    14    15   ar
    24    15    16   ar
    25    16    17   ar
    26    17    18   ar
    27    18     9   ar
    28    17    12   ar
    29     6     1   ar
    30    31    32    1
    31     5     7    1
    32     5     8    1
    33    23    25    1
    34    23    26    1
@<TRIPOS>MOLECULE
*****
 32 34 0 0 0
SMALL
GASTEIGER

@<TRIPOS>ATOM
      1 C         139.9692  140.1859  165.9383 C.ar    1  UNL1        0.1079
      2 N         140.7703  141.2567  166.6177 N.ar    1  UNL1       -0.1681
      3 N         140.4251  141.2383  168.0773 N.ar    1  UNL1       -0.2399
      4 C         139.4105  140.1561  168.3000 C.ar    1  UNL1        0.1280
      5 N         138.7872  139.7888  169.6140 N.pl3   1  UNL1       -0.3427
      6 C         139.1287  139.5056  166.9781 C.ar    1  UNL1        0.1031
      7 H         139.0380  140.2769  170.4314 H       1  UNL1        0.1437
      8 H         138.1273  139.0596  169.6590 H       1  UNL1        0.1437
      9 C         138.9928  139.3151  159.1901 C.ar    1  UNL1        0.1386
     10 C         137.8494  140.1057  159.7536 C.ar    1  UNL1        0.0369
     11 C         137.8161  140.4380  161.2160 C.ar    1  UNL1        0.0031
     12 C         138.9260  139.9796  162.1148 C.ar    1  UNL1        0.0002
     13 C         138.8926  140.3119  163.5771 C.ar    1  UNL1        0.0016
     14 C         140.0026  139.8536  164.4759 C.ar    1  UNL1        0.0196
     15 C         141.1460  139.0629  163.9124 C.ar    1  UNL1        0.0016
     16 C         141.1794  138.7306  162.4501 C.ar    1  UNL1        0.0001
     17 C         140.0693  139.1890  161.5512 C.ar    1  UNL1        0.0030
     18 C         140.1027  138.8567  160.0889 C.ar    1  UNL1        0.0369
     19 O         139.0262  138.9828  157.7277 O.3     1  UNL1       -0.4755
     20 C         140.8910  138.8162  155.9265 C.3     1  UNL1        0.0512
     21 C         140.2117  138.2703  157.1474 C.3     1  UNL1        0.2055
     22 C         138.1742  138.3738  166.7380 C.2     1  UNL1        0.2470
     23 N         138.4283  137.4017  165.6242 N.am    1  UNL1       -0.3252
     24 O         136.9655  138.2138  167.6119 O.2     1  UNL1       -0.2702
     25 H         139.2215  137.5066  165.0506 H       1  UNL1        0.1453
     26 H         137.8017  136.6589  165.4667 H       1  UNL1        0.1453
     27 C         140.9943  142.1431  169.1294 C.3     1  UNL1        0.1091
     28 C         140.3426  143.4634  169.4158 C.3     1  UNL1        0.0265
     29 C         142.2154  141.7277  169.8952 C.3     1  UNL1        0.0561
     30 C         142.1047  140.7027  170.9847 C.3     1  UNL1        0.1392
     31 O         141.6524  139.3097  170.6608 O.3     1  UNL1       -0.3819
     32 H         140.7294  139.3304  170.3632 H       1  UNL1        0.2104
@<TRIPOS>BOND
     1    20    21    1
     2    21    19    1
     3    19     9    1
     4     9    10   ar
     5    10    11   ar
     6    11    12   ar
     7    12    13   ar
     8    13    14   ar
     9    14     1    1
    10     1     2   ar
    11     2     3   ar
    12     3    27    1
    13    27    28    1
    14    27    29    1
    15    29    30    1
    16    30    31    1
    17     3     4   ar
    18     4     5    1
    19     4     6   ar
    20     6    22    1
    21    22    23   am
    22    22    24    2
    23    14    15   ar
    24    15    16   ar
    25    16    17   ar
    26    17    18   ar
    27    18     9   ar
    28    17    12   ar
    29     6     1   ar
    30    31    32    1
    31     5     7    1
    32     5     8    1
    33    23    25    1
    34    23    26    1
@<TRIPOS>MOLECULE
*****
 32 34 0 0 0
SMALL
GASTEIGER

@<TRIPOS>ATOM
      1 C         141.1603  142.8747  165.4149 C.ar    1  UNL1        0.1079
      2 N         140.0835  142.4889  166.3853 N.ar    1  UNL1       -0.1681
      3 N         140.7437  141.9690  167.6278 N.ar    1  UNL1       -0.2399
      4 C         142.2286  142.0334  167.4254 C.ar    1  UNL1        0.1280
      5 N         143.2727  141.6121  168.4165 N.pl3   1  UNL1       -0.3427
      6 C         142.4862  142.5932  166.0577 C.ar    1  UNL1        0.1031
      7 H         143.0033  141.2546  169.2933 H       1  UNL1        0.1437
      8 H         144.2274  141.6931  168.1902 H       1  UNL1        0.1437
      9 C         140.1081  144.2268  158.7580 C.ar    1  UNL1        0.1386
     10 C         140.1146  142.7408  158.9622 C.ar    1  UNL1        0.0369
     11 C         140.3263  142.1732  160.3344 C.ar    1  UNL1        0.0031
     12 C         140.5316  143.0916  161.5024 C.ar    1  UNL1        0.0002
     13 C         140.7433  142.5239  162.8747 C.ar    1  UNL1        0.0016
     14 C         140.9486  143.4423  164.0427 C.ar    1  UNL1        0.0196
     15 C         140.9422  144.9284  163.8386 C.ar    1  UNL1        0.0016
     16 C         140.7304  145.4960  162.4664 C.ar    1  UNL1        0.0001
     17 C         140.5251  144.5776  161.2983 C.ar    1  UNL1        0.0030
     18 C         140.3134  145.1452  159.9261 C.ar    1  UNL1        0.0369
     19 O         139.8964  144.7944  157.3858 O.3     1  UNL1       -0.4755
     20 C         139.2771  147.1526  156.4884 C.3     1  UNL1        0.0512
     21 C         140.2790  146.2152  157.0946 C.3     1  UNL1        0.2055
     22 C         143.8328  142.8299  165.4412 C.2     1  UNL1        0.2470
     23 N         144.7440  143.8776  166.0087 N.am    1  UNL1       -0.3252
     24 O         144.2686  142.0188  164.2569 O.2     1  UNL1       -0.2702
     25 H         144.4581  144.4100  166.7859 H       1  UNL1        0.1453
     26 H         145.6279  144.0329  165.6040 H       1  UNL1        0.1453
     27 C         140.0423  141.4719  168.8569 C.3     1  UNL1        0.1091
     28 C         139.3273  140.1536  168.8310 C.3     1  UNL1        0.0265
     29 C         140.0559  142.2932  170.1120 C.3     1  UNL1        0.0561
     30 C         140.9625  141.9155  171.2458 C.3     1  UNL1        0.1392
     31 O         140.7073  140.6584  172.0234 O.3     1  UNL1       -0.3819
     32 H         139.8699  140.7411  172.5059 H       1  UNL1        0.2104
@<TRIPOS>BOND
     1    20    21    1
     2    21    19    1
     3    19     9    1
     4     9    10   ar
     5    10    11   ar
     6    11    12   ar
     7    12    13   ar
     8    13    14   ar
     9    14     1    1
    10     1     2   ar
    11     2     3   ar
    12     3    27    1
    13    27    28    1
    14    27    29    1
    15    29    30    1
    16    30    31    1
    17     3     4   ar
    18     4     5    1
    19     4     6   ar
    20     6    22    1
    21    22    23   am
    22    22    24    2
    23    14    15   ar
    24    15    16   ar
    25    16    17   ar
    26    17    18   ar
    27    18     9   ar
    28    17    12   ar
    29     6     1   ar
    30    31    32    1
    31     5     7    1
    32     5     8    1
    33    23    25    1
    34    23    26    1
