@<TRIPOS>MOLECULE
*****
 29 32 0 0 0
SMALL
GASTEIGER

@<TRIPOS>ATOM
      1 C         139.1100  138.4546  163.1940 C.3     1  UNL1        0.0559
      2 C         139.3081  139.4911  164.2600 C.3     1  UNL1        0.2097
      3 N         139.4756  139.2264  165.7269 N.pl3   1  UNL1       -0.2183
      4 C         139.6446  140.5460  166.4198 C.2     1  UNL1        0.3162
      5 N         139.5814  141.6263  165.3811 N.2     1  UNL1       -0.0615
      6 C         139.3735  140.9744  164.0463 C.3     1  UNL1        0.2514
      7 H         139.4749  138.3418  166.1591 H       1  UNL1        0.2923
      8 C         139.1703  140.6169  162.6038 C.ar    1  UNL1        0.0297
      9 C         137.7858  140.3795  162.0778 C.ar    1  UNL1        0.0025
     10 C         137.5826  140.0219  160.6352 C.ar    1  UNL1        0.0295
     11 C         138.7639  139.9018  159.7187 C.ar    1  UNL1        0.1401
     12 F         138.5607  139.5443  158.2762 F       1  UNL1       -0.2042
     13 C         140.1485  140.1392  160.2447 C.ar    1  UNL1        0.0295
     14 C         140.3517  140.4967  161.6873 C.ar    1  UNL1        0.0025
     15 C         139.3964  142.3829  163.5310 C.ar    1  UNL1        0.0488
     16 C         140.6912  143.1376  163.4681 C.ar    1  UNL1        0.0057
     17 C         140.7141  144.5461  162.9527 C.ar    1  UNL1        0.0495
     18 C         139.4422  145.1999  162.5003 C.ar    1  UNL1        0.2223
     19 F         139.4651  146.6085  161.9850 F       1  UNL1       -0.1832
     20 N         138.1474  144.4453  162.5632 N.ar    1  UNL1       -0.2166
     21 C         138.1245  143.0367  163.0785 C.ar    1  UNL1        0.1014
     22 C         139.8420  140.7495  167.8928 C.ar    1  UNL1        0.0854
     23 C         138.9857  140.0054  168.8741 C.ar    1  UNL1        0.0281
     24 C         139.1832  140.2090  170.3471 C.ar    1  UNL1        0.0999
     25 N         140.2369  141.1567  170.8386 N.ar    1  UNL1       -0.2335
     26 C         141.0931  141.9008  169.8573 C.ar    1  UNL1        0.1494
     27 C         140.8957  141.6972  168.3844 C.ar    1  UNL1        0.0370
     28 C         142.1468  142.8485  170.3489 C.1     1  UNL1        0.1198
     29 N         143.2005  143.7962  170.8404 N.1     1  UNL1       -0.1893
@<TRIPOS>BOND
     1     2     1    1
     2     2     3    1
     3     3     4    1
     4     4    22    1
     5    22    23   ar
     6    23    24   ar
     7    24    25   ar
     8    25    26   ar
     9    26    28    1
    10    28    29    3
    11    26    27   ar
    12     4     5    2
    13     5     6    1
    14     6     8    1
    15     8     9   ar
    16     9    10   ar
    17    10    11   ar
    18    11    12    1
    19    11    13   ar
    20    13    14   ar
    21     6    15    1
    22    15    16   ar
    23    16    17   ar
    24    17    18   ar
    25    18    19    1
    26    18    20   ar
    27    20    21   ar
    28     6     2    1
    29    14     8   ar
    30    21    15   ar
    31    27    22   ar
    32     3     7    1
@<TRIPOS>MOLECULE
*****
 29 32 0 0 0
SMALL
GASTEIGER

@<TRIPOS>ATOM
      1 C         143.4179  139.7306  162.1645 C.3     1  UNL1        0.0559
      2 C         142.3152  140.2011  163.0660 C.3     1  UNL1        0.2097
      3 N         141.7433  139.4447  164.2282 N.pl3   1  UNL1       -0.2183
      4 C         140.6654  140.2867  164.8441 C.2     1  UNL1        0.3162
      5 N         140.5712  141.5635  164.0624 N.2     1  UNL1       -0.0615
      6 C         141.5908  141.5106  162.9635 C.3     1  UNL1        0.2514
      7 H         142.0258  138.5523  164.5333 H       1  UNL1        0.2923
      8 C         142.4986  141.7415  161.7920 C.ar    1  UNL1        0.0297
      9 C         142.0834  141.2942  160.4218 C.ar    1  UNL1        0.0025
     10 C         142.9912  141.5251  159.2502 C.ar    1  UNL1        0.0295
     11 C         144.3143  142.2032  159.4489 C.ar    1  UNL1        0.1401
     12 F         145.2221  142.4341  158.2773 F       1  UNL1       -0.2042
     13 C         144.7296  142.6505  160.8192 C.ar    1  UNL1        0.0295
     14 C         143.8218  142.4196  161.9907 C.ar    1  UNL1        0.0025
     15 C         141.0562  142.8683  162.6161 C.ar    1  UNL1        0.0488
     16 C         141.5989  144.0864  163.3030 C.ar    1  UNL1        0.0057
     17 C         141.0643  145.4441  162.9556 C.ar    1  UNL1        0.0495
     18 C         139.9870  145.5838  161.9213 C.ar    1  UNL1        0.2223
     19 F         139.4524  146.9417  161.5739 F       1  UNL1       -0.1832
     20 N         139.4443  144.3659  161.2344 N.ar    1  UNL1       -0.2166
     21 C         139.9788  143.0080  161.5818 C.ar    1  UNL1        0.1014
     22 C         139.8287  139.9168  166.0329 C.ar    1  UNL1        0.0854
     23 C         138.5833  139.1013  165.8489 C.ar    1  UNL1        0.0281
     24 C         137.7467  138.7314  167.0377 C.ar    1  UNL1        0.0999
     25 N         138.1554  139.1772  168.4104 N.ar    1  UNL1       -0.2335
     26 C         139.4008  139.9928  168.5943 C.ar    1  UNL1        0.1494
     27 C         140.2374  140.3626  167.4055 C.ar    1  UNL1        0.0370
     28 C         139.8095  140.4385  169.9670 C.1     1  UNL1        0.1198
     29 N         140.2182  140.8843  171.3397 N.1     1  UNL1       -0.1893
@<TRIPOS>BOND
     1     2     1    1
     2     2     3    1
     3     3     4    1
     4     4    22    1
     5    22    23   ar
     6    23    24   ar
     7    24    25   ar
     8    25    26   ar
     9    26    28    1
    10    28    29    3
    11    26    27   ar
    12     4     5    2
    13     5     6    1
    14     6     8    1
    15     8     9   ar
    16     9    10   ar
    17    10    11   ar
    18    11    12    1
    19    11    13   ar
    20    13    14   ar
    21     6    15    1
    22    15    16   ar
    23    16    17   ar
    24    17    18   ar
    25    18    19    1
    26    18    20   ar
    27    20    21   ar
    28     6     2    1
    29    14     8   ar
    30    21    15   ar
    31    27    22   ar
    32     3     7    1
@<TRIPOS>MOLECULE
*****
 29 32 0 0 0
SMALL
GASTEIGER

@<TRIPOS>ATOM
      1 C         140.8194  137.5987  164.7426 C.3     1  UNL1        0.0559
      2 C         140.6842  138.2067  163.3781 C.3     1  UNL1        0.2097
      3 N         141.1868  137.6141  162.0950 N.pl3   1  UNL1       -0.2183
      4 C         140.8359  138.5552  160.9809 C.2     1  UNL1        0.3162
      5 N         140.1163  139.7294  161.5754 N.2     1  UNL1       -0.0615
      6 C         140.0226  139.5141  163.0569 C.3     1  UNL1        0.2514
      7 H         141.6634  136.7578  162.0007 H       1  UNL1        0.2923
      8 C         139.7799  139.5747  164.5359 C.ar    1  UNL1        0.0297
      9 C         140.7963  140.2106  165.4372 C.ar    1  UNL1        0.0025
     10 C         140.5537  140.2712  166.9163 C.ar    1  UNL1        0.0295
     11 C         139.2947  139.6959  167.4939 C.ar    1  UNL1        0.1401
     12 F         139.0520  139.7565  168.9729 F       1  UNL1       -0.2042
     13 C         138.2781  139.0599  166.5925 C.ar    1  UNL1        0.0295
     14 C         138.5208  138.9993  165.1135 C.ar    1  UNL1        0.0025
     15 C         139.3103  140.8341  163.0449 C.ar    1  UNL1        0.0488
     16 C         140.0832  142.1052  163.2369 C.ar    1  UNL1        0.0057
     17 C         139.3709  143.4253  163.2249 C.ar    1  UNL1        0.0495
     18 C         137.8856  143.4742  163.0211 C.ar    1  UNL1        0.2223
     19 F         137.1734  144.7943  163.0091 F       1  UNL1       -0.1832
     20 N         137.1127  142.2031  162.8291 N.ar    1  UNL1       -0.2166
     21 C         137.8250  140.8830  162.8411 C.ar    1  UNL1        0.1014
     22 C         141.1494  138.3568  159.5275 C.ar    1  UNL1        0.0854
     23 C         142.5648  138.4689  159.0435 C.ar    1  UNL1        0.0281
     24 C         142.8783  138.2705  157.5901 C.ar    1  UNL1        0.0999
     25 N         141.7765  137.9601  156.6208 N.ar    1  UNL1       -0.2335
     26 C         140.3612  137.8480  157.1048 C.ar    1  UNL1        0.1494
     27 C         140.0476  138.0464  158.5581 C.ar    1  UNL1        0.0370
     28 C         139.2594  137.5376  156.1354 C.1     1  UNL1        0.1198
     29 N         138.1576  137.2271  155.1660 N.1     1  UNL1       -0.1893
@<TRIPOS>BOND
     1     2     1    1
     2     2     3    1
     3     3     4    1
     4     4    22    1
     5    22    23   ar
     6    23    24   ar
     7    24    25   ar
     8    25    26   ar
     9    26    28    1
    10    28    29    3
    11    26    27   ar
    12     4     5    2
    13     5     6    1
    14     6     8    1
    15     8     9   ar
    16     9    10   ar
    17    10    11   ar
    18    11    12    1
    19    11    13   ar
    20    13    14   ar
    21     6    15    1
    22    15    16   ar
    23    16    17   ar
    24    17    18   ar
    25    18    19    1
    26    18    20   ar
    27    20    21   ar
    28     6     2    1
    29    14     8   ar
    30    21    15   ar
    31    27    22   ar
    32     3     7    1
@<TRIPOS>MOLECULE
*****
 29 32 0 0 0
SMALL
GASTEIGER

@<TRIPOS>ATOM
      1 C         141.4866  137.6143  163.3103 C.3     1  UNL1        0.0559
      2 C         141.2273  138.6250  164.3879 C.3     1  UNL1        0.2097
      3 N         141.6761  138.5262  165.8158 N.pl3   1  UNL1       -0.2183
      4 C         141.1999  139.7520  166.5373 C.2     1  UNL1        0.3162
      5 N         140.4568  140.6085  165.5553 N.2     1  UNL1       -0.0615
      6 C         140.4737  139.9119  164.2269 C.3     1  UNL1        0.2514
      7 H         142.1925  137.7866  166.2102 H       1  UNL1        0.2923
      8 C         140.3268  139.4649  162.8027 C.ar    1  UNL1        0.0297
      9 C         141.3149  139.9173  161.7689 C.ar    1  UNL1        0.0025
     10 C         141.1680  139.4703  160.3445 C.ar    1  UNL1        0.0295
     11 C         140.0329  138.5708  159.9541 C.ar    1  UNL1        0.1401
     12 F         139.8860  138.1238  158.5298 F       1  UNL1       -0.2042
     13 C         139.0447  138.1183  160.9880 C.ar    1  UNL1        0.0295
     14 C         139.1916  138.5654  162.4122 C.ar    1  UNL1        0.0025
     15 C         139.6894  141.1054  163.7682 C.ar    1  UNL1        0.0488
     16 C         138.1913  141.0459  163.7222 C.ar    1  UNL1        0.0057
     17 C         137.4070  142.2393  163.2634 C.ar    1  UNL1        0.0495
     18 C         138.1208  143.4923  162.8506 C.ar    1  UNL1        0.2223
     19 F         137.3364  144.6858  162.3918 F       1  UNL1       -0.1832
     20 N         139.6188  143.5519  162.8966 N.ar    1  UNL1       -0.2166
     21 C         140.4032  142.3584  163.3554 C.ar    1  UNL1        0.1014
     22 C         141.4269  140.0662  167.9864 C.ar    1  UNL1        0.0854
     23 C         142.4915  139.3396  168.7535 C.ar    1  UNL1        0.0281
     24 C         142.7185  139.6538  170.2025 C.ar    1  UNL1        0.0999
     25 N         141.8808  140.6947  170.8844 N.ar    1  UNL1       -0.2335
     26 C         140.8162  141.4213  170.1173 C.ar    1  UNL1        0.1494
     27 C         140.5892  141.1071  168.6683 C.ar    1  UNL1        0.0370
     28 C         139.9786  142.4622  170.7992 C.1     1  UNL1        0.1198
     29 N         139.1409  143.5030  171.4811 N.1     1  UNL1       -0.1893
@<TRIPOS>BOND
     1     2     1    1
     2     2     3    1
     3     3     4    1
     4     4    22    1
     5    22    23   ar
     6    23    24   ar
     7    24    25   ar
     8    25    26   ar
     9    26    28    1
    10    28    29    3
    11    26    27   ar
    12     4     5    2
    13     5     6    1
    14     6     8    1
    15     8     9   ar
    16     9    10   ar
    17    10    11   ar
    18    11    12    1
    19    11    13   ar
    20    13    14   ar
    21     6    15    1
    22    15    16   ar
    23    16    17   ar
    24    17    18   ar
    25    18    19    1
    26    18    20   ar
    27    20    21   ar
    28     6     2    1
    29    14     8   ar
    30    21    15   ar
    31    27    22   ar
    32     3     7    1
@<TRIPOS>MOLECULE
*****
 29 32 0 0 0
SMALL
GASTEIGER

@<TRIPOS>ATOM
      1 C         141.5801  137.5422  164.7133 C.3     1  UNL1        0.0559
      2 C         142.0565  138.3086  163.5151 C.3     1  UNL1        0.2097
      3 N         142.1562  137.7820  162.1141 N.pl3   1  UNL1       -0.2183
      4 C         142.6781  138.8842  161.2407 C.2     1  UNL1        0.3162
      5 N         142.9011  140.0919  162.1018 N.2     1  UNL1       -0.0615
      6 C         142.5169  139.7363  163.5075 C.3     1  UNL1        0.2514
      7 H         141.9204  136.8727  161.8196 H       1  UNL1        0.2923
      8 C         142.2158  139.6764  164.9757 C.ar    1  UNL1        0.0297
      9 C         143.2510  139.1652  165.9333 C.ar    1  UNL1        0.0025
     10 C         142.9499  139.1053  167.4017 C.ar    1  UNL1        0.0295
     11 C         141.6137  139.5566  167.9122 C.ar    1  UNL1        0.1401
     12 F         141.3126  139.4967  169.3805 F       1  UNL1       -0.2042
     13 C         140.5784  140.0678  166.9546 C.ar    1  UNL1        0.0295
     14 C         140.8795  140.1277  165.4863 C.ar    1  UNL1        0.0025
     15 C         142.9143  141.1513  163.8069 C.ar    1  UNL1        0.0488
     16 C         144.2607  141.4427  164.4004 C.ar    1  UNL1        0.0057
     17 C         144.6581  142.8577  164.6998 C.ar    1  UNL1        0.0495
     18 C         143.7091  143.9815  164.4056 C.ar    1  UNL1        0.2223
     19 F         144.1066  145.3966  164.7050 F       1  UNL1       -0.1832
     20 N         142.3627  143.6902  163.8121 N.ar    1  UNL1       -0.2166
     21 C         141.9653  142.2751  163.5127 C.ar    1  UNL1        0.1014
     22 C         142.9325  138.7943  159.7651 C.ar    1  UNL1        0.0854
     23 C         143.5120  139.9670  159.0311 C.ar    1  UNL1        0.0281
     24 C         143.7664  139.8771  157.5556 C.ar    1  UNL1        0.0999
     25 N         143.4412  138.6144  156.8141 N.ar    1  UNL1       -0.2335
     26 C         142.8617  137.4417  157.5480 C.ar    1  UNL1        0.1494
     27 C         142.6073  137.5316  159.0235 C.ar    1  UNL1        0.0370
     28 C         142.5365  136.1790  156.8065 C.1     1  UNL1        0.1198
     29 N         142.2113  134.9163  156.0650 N.1     1  UNL1       -0.1893
@<TRIPOS>BOND
     1     2     1    1
     2     2     3    1
     3     3     4    1
     4     4    22    1
     5    22    23   ar
     6    23    24   ar
     7    24    25   ar
     8    25    26   ar
     9    26    28    1
    10    28    29    3
    11    26    27   ar
    12     4     5    2
    13     5     6    1
    14     6     8    1
    15     8     9   ar
    16     9    10   ar
    17    10    11   ar
    18    11    12    1
    19    11    13   ar
    20    13    14   ar
    21     6    15    1
    22    15    16   ar
    23    16    17   ar
    24    17    18   ar
    25    18    19    1
    26    18    20   ar
    27    20    21   ar
    28     6     2    1
    29    14     8   ar
    30    21    15   ar
    31    27    22   ar
    32     3     7    1
@<TRIPOS>MOLECULE
*****
 29 32 0 0 0
SMALL
GASTEIGER

@<TRIPOS>ATOM
      1 C         140.9941  137.3291  163.4383 C.3     1  UNL1        0.0559
      2 C         141.1645  138.4837  164.3805 C.3     1  UNL1        0.2097
      3 N         140.6140  138.5741  165.7729 N.pl3   1  UNL1       -0.2183
      4 C         141.0246  139.8969  166.3487 C.2     1  UNL1        0.3162
      5 N         141.8290  140.6240  165.3122 N.2     1  UNL1       -0.0615
      6 C         141.9155  139.7506  164.0958 C.3     1  UNL1        0.2514
      7 H         140.0774  137.8861  166.2288 H       1  UNL1        0.2923
      8 C         142.1700  139.1142  162.7616 C.ar    1  UNL1        0.0297
      9 C         141.1616  139.2530  161.6599 C.ar    1  UNL1        0.0025
     10 C         141.4161  138.6166  160.3255 C.ar    1  UNL1        0.0295
     11 C         142.6790  137.8415  160.0930 C.ar    1  UNL1        0.1401
     12 F         142.9336  137.2051  158.7588 F       1  UNL1       -0.2042
     13 C         143.6876  137.7027  161.1948 C.ar    1  UNL1        0.0295
     14 C         143.4330  138.3391  162.5290 C.ar    1  UNL1        0.0025
     15 C         142.7196  140.8845  163.5321 C.ar    1  UNL1        0.0488
     16 C         144.1905  140.9729  163.8125 C.ar    1  UNL1        0.0057
     17 C         144.9946  142.1068  163.2489 C.ar    1  UNL1        0.0495
     18 C         144.3278  143.1522  162.4048 C.ar    1  UNL1        0.2223
     19 F         145.1320  144.2861  161.8412 F       1  UNL1       -0.1832
     20 N         142.8570  143.0638  162.1244 N.ar    1  UNL1       -0.2166
     21 C         142.0528  141.9299  162.6881 C.ar    1  UNL1        0.1014
     22 C         140.6897  140.4036  167.7203 C.ar    1  UNL1        0.0854
     23 C         139.4469  139.9283  168.4126 C.ar    1  UNL1        0.0281
     24 C         139.1120  140.4350  169.7841 C.ar    1  UNL1        0.0999
     25 N         140.0200  141.4171  170.4633 N.ar    1  UNL1       -0.2335
     26 C         141.2628  141.8924  169.7709 C.ar    1  UNL1        0.1494
     27 C         141.5977  141.3857  168.3994 C.ar    1  UNL1        0.0370
     28 C         142.1708  142.8744  170.4501 C.1     1  UNL1        0.1198
     29 N         143.0787  143.8564  171.1292 N.1     1  UNL1       -0.1893
@<TRIPOS>BOND
     1     2     1    1
     2     2     3    1
     3     3     4    1
     4     4    22    1
     5    22    23   ar
     6    23    24   ar
     7    24    25   ar
     8    25    26   ar
     9    26    28    1
    10    28    29    3
    11    26    27   ar
    12     4     5    2
    13     5     6    1
    14     6     8    1
    15     8     9   ar
    16     9    10   ar
    17    10    11   ar
    18    11    12    1
    19    11    13   ar
    20    13    14   ar
    21     6    15    1
    22    15    16   ar
    23    16    17   ar
    24    17    18   ar
    25    18    19    1
    26    18    20   ar
    27    20    21   ar
    28     6     2    1
    29    14     8   ar
    30    21    15   ar
    31    27    22   ar
    32     3     7    1
@<TRIPOS>MOLECULE
*****
 29 32 0 0 0
SMALL
GASTEIGER

@<TRIPOS>ATOM
      1 C         142.8431  142.4025  166.4508 C.3     1  UNL1        0.0559
      2 C         141.8740  142.1051  165.3452 C.3     1  UNL1        0.2097
      3 N         141.7567  142.8534  164.0505 N.pl3   1  UNL1       -0.2183
      4 C         140.6623  142.2178  163.2452 C.2     1  UNL1        0.3162
      5 N         140.1032  141.0767  164.0423 N.2     1  UNL1       -0.0615
      6 C         140.8521  141.0070  165.3401 C.3     1  UNL1        0.2514
      7 H         142.3022  143.6260  163.7772 H       1  UNL1        0.2923
      8 C         141.4118  140.6941  166.6961 C.ar    1  UNL1        0.0297
      9 C         142.3783  139.5595  166.8649 C.ar    1  UNL1        0.0025
     10 C         142.9381  139.2465  168.2210 C.ar    1  UNL1        0.0295
     11 C         142.5313  140.0681  169.4081 C.ar    1  UNL1        0.1401
     12 F         143.0911  139.7552  170.7641 F       1  UNL1       -0.2042
     13 C         141.5647  141.2028  169.2393 C.ar    1  UNL1        0.0295
     14 C         141.0050  141.5157  167.8833 C.ar    1  UNL1        0.0025
     15 C         139.9472  139.8435  165.6185 C.ar    1  UNL1        0.0488
     16 C         138.8899  139.9522  166.6770 C.ar    1  UNL1        0.0057
     17 C         137.9850  138.7887  166.9554 C.ar    1  UNL1        0.0495
     18 C         138.1375  137.5166  166.1754 C.ar    1  UNL1        0.2223
     19 F         137.2326  136.3531  166.4539 F       1  UNL1       -0.1832
     20 N         139.1947  137.4079  165.1170 N.ar    1  UNL1       -0.2166
     21 C         140.0997  138.5714  164.8385 C.ar    1  UNL1        0.1014
     22 C         140.2069  142.6479  161.8822 C.ar    1  UNL1        0.0854
     23 C         138.9240  142.1144  161.3171 C.ar    1  UNL1        0.0281
     24 C         138.4687  142.5445  159.9542 C.ar    1  UNL1        0.0999
     25 N         139.2963  143.5081  159.1564 N.ar    1  UNL1       -0.2335
     26 C         140.5792  144.0416  159.7215 C.ar    1  UNL1        0.1494
     27 C         141.0345  143.6115  161.0844 C.ar    1  UNL1        0.0370
     28 C         141.4068  145.0052  158.9237 C.1     1  UNL1        0.1198
     29 N         142.2344  145.9689  158.1259 N.1     1  UNL1       -0.1893
@<TRIPOS>BOND
     1     2     1    1
     2     2     3    1
     3     3     4    1
     4     4    22    1
     5    22    23   ar
     6    23    24   ar
     7    24    25   ar
     8    25    26   ar
     9    26    28    1
    10    28    29    3
    11    26    27   ar
    12     4     5    2
    13     5     6    1
    14     6     8    1
    15     8     9   ar
    16     9    10   ar
    17    10    11   ar
    18    11    12    1
    19    11    13   ar
    20    13    14   ar
    21     6    15    1
    22    15    16   ar
    23    16    17   ar
    24    17    18   ar
    25    18    19    1
    26    18    20   ar
    27    20    21   ar
    28     6     2    1
    29    14     8   ar
    30    21    15   ar
    31    27    22   ar
    32     3     7    1
@<TRIPOS>MOLECULE
*****
 29 32 0 0 0
SMALL
GASTEIGER

@<TRIPOS>ATOM
      1 C         142.4631  139.5368  167.7832 C.3     1  UNL1        0.0559
      2 C         142.1081  139.6827  166.3331 C.3     1  UNL1        0.2097
      3 N         142.6797  138.8823  165.2006 N.pl3   1  UNL1       -0.2183
      4 C         142.0440  139.3596  163.9285 C.2     1  UNL1        0.3162
      5 N         141.0796  140.4549  164.2748 N.2     1  UNL1       -0.0615
      6 C         141.1191  140.6546  165.7609 C.3     1  UNL1        0.2514
      7 H         143.3538  138.1690  165.2785 H       1  UNL1        0.2923
      8 C         140.9443  141.0759  167.1899 C.ar    1  UNL1        0.0297
      9 C         139.8365  140.4902  168.0143 C.ar    1  UNL1        0.0025
     10 C         139.6617  140.9115  169.4434 C.ar    1  UNL1        0.0295
     11 C         140.5947  141.9185  170.0478 C.ar    1  UNL1        0.1401
     12 F         140.4199  142.3398  171.4768 F       1  UNL1       -0.2042
     13 C         141.7026  142.5043  169.2234 C.ar    1  UNL1        0.0295
     14 C         141.8773  142.0830  167.7944 C.ar    1  UNL1        0.0025
     15 C         140.0936  141.7146  165.4875 C.ar    1  UNL1        0.0488
     16 C         140.4174  143.1561  165.7468 C.ar    1  UNL1        0.0057
     17 C         139.3919  144.2161  165.4734 C.ar    1  UNL1        0.0495
     18 C         138.0426  143.8346  164.9408 C.ar    1  UNL1        0.2223
     19 F         137.0171  144.8947  164.6674 F       1  UNL1       -0.1832
     20 N         137.7188  142.3932  164.6815 N.ar    1  UNL1       -0.2166
     21 C         138.7443  141.3331  164.9549 C.ar    1  UNL1        0.1014
     22 C         142.3238  138.8337  162.5518 C.ar    1  UNL1        0.0854
     23 C         143.6557  138.2181  162.2403 C.ar    1  UNL1        0.0281
     24 C         143.9354  137.6924  160.8637 C.ar    1  UNL1        0.0999
     25 N         142.8832  137.7821  159.7984 N.ar    1  UNL1       -0.2335
     26 C         141.5513  138.3977  160.1098 C.ar    1  UNL1        0.1494
     27 C         141.2716  138.9235  161.4865 C.ar    1  UNL1        0.0370
     28 C         140.4990  138.4875  159.0446 C.1     1  UNL1        0.1198
     29 N         139.4468  138.5773  157.9793 N.1     1  UNL1       -0.1893
@<TRIPOS>BOND
     1     2     1    1
     2     2     3    1
     3     3     4    1
     4     4    22    1
     5    22    23   ar
     6    23    24   ar
     7    24    25   ar
     8    25    26   ar
     9    26    28    1
    10    28    29    3
    11    26    27   ar
    12     4     5    2
    13     5     6    1
    14     6     8    1
    15     8     9   ar
    16     9    10   ar
    17    10    11   ar
    18    11    12    1
    19    11    13   ar
    20    13    14   ar
    21     6    15    1
    22    15    16   ar
    23    16    17   ar
    24    17    18   ar
    25    18    19    1
    26    18    20   ar
    27    20    21   ar
    28     6     2    1
    29    14     8   ar
    30    21    15   ar
    31    27    22   ar
    32     3     7    1
@<TRIPOS>MOLECULE
*****
 29 32 0 0 0
SMALL
GASTEIGER

@<TRIPOS>ATOM
      1 C         142.7074  139.6153  167.4509 C.3     1  UNL1        0.0559
      2 C         142.3896  139.8633  166.0061 C.3     1  UNL1        0.2097
      3 N         143.0606  139.2146  164.8318 N.pl3   1  UNL1       -0.2183
      4 C         142.4308  139.7539  163.5818 C.2     1  UNL1        0.3162
      5 N         141.3705  140.7359  163.9836 N.2     1  UNL1       -0.0615
      6 C         141.3450  140.8035  165.4818 C.3     1  UNL1        0.2514
      7 H         143.7869  138.5513  164.8741 H       1  UNL1        0.2923
      8 C         141.0901  141.0797  166.9340 C.ar    1  UNL1        0.0297
      9 C         141.8986  142.1187  167.6530 C.ar    1  UNL1        0.0025
     10 C         141.6437  142.3949  169.1052 C.ar    1  UNL1        0.0295
     11 C         140.5803  141.6323  169.8383 C.ar    1  UNL1        0.1401
     12 F         140.3254  141.9085  171.2904 F       1  UNL1       -0.2042
     13 C         139.7717  140.5933  169.1192 C.ar    1  UNL1        0.0295
     14 C         140.0267  140.3170  167.6671 C.ar    1  UNL1        0.0025
     15 C         140.2472  141.8015  165.2612 C.ar    1  UNL1        0.0488
     16 C         140.5041  143.2618  165.4886 C.ar    1  UNL1        0.0057
     17 C         139.4062  144.2597  165.2680 C.ar    1  UNL1        0.0495
     18 C         138.0514  143.7975  164.8200 C.ar    1  UNL1        0.2223
     19 F         136.9535  144.7956  164.5993 F       1  UNL1       -0.1832
     20 N         137.7945  142.3373  164.5925 N.ar    1  UNL1       -0.2166
     21 C         138.8923  141.3393  164.8131 C.ar    1  UNL1        0.1014
     22 C         142.7970  139.3773  162.1768 C.ar    1  UNL1        0.0854
     23 C         142.7030  137.9470  161.7350 C.ar    1  UNL1        0.0281
     24 C         143.0692  137.5704  160.3300 C.ar    1  UNL1        0.0999
     25 N         143.5293  138.6242  159.3668 N.ar    1  UNL1       -0.2335
     26 C         143.6232  140.0546  159.8085 C.ar    1  UNL1        0.1494
     27 C         143.2571  140.4311  161.2135 C.ar    1  UNL1        0.0370
     28 C         144.0834  141.1084  158.8453 C.1     1  UNL1        0.1198
     29 N         144.5435  142.1622  157.8821 N.1     1  UNL1       -0.1893
@<TRIPOS>BOND
     1     2     1    1
     2     2     3    1
     3     3     4    1
     4     4    22    1
     5    22    23   ar
     6    23    24   ar
     7    24    25   ar
     8    25    26   ar
     9    26    28    1
    10    28    29    3
    11    26    27   ar
    12     4     5    2
    13     5     6    1
    14     6     8    1
    15     8     9   ar
    16     9    10   ar
    17    10    11   ar
    18    11    12    1
    19    11    13   ar
    20    13    14   ar
    21     6    15    1
    22    15    16   ar
    23    16    17   ar
    24    17    18   ar
    25    18    19    1
    26    18    20   ar
    27    20    21   ar
    28     6     2    1
    29    14     8   ar
    30    21    15   ar
    31    27    22   ar
    32     3     7    1
