@<TRIPOS>MOLECULE
*****
 21 23 0 0 0
SMALL
GASTEIGER

@<TRIPOS>ATOM
      1 C         140.0681  141.7611  164.9845 C.2     1  UNL1        0.1818
      2 O         141.2549  142.4592  164.3895 O.2     1  UNL1       -0.2903
      3 C         139.9985  141.5295  166.4649 C.2     1  UNL1        0.0183
      4 C         139.4944  140.2206  166.9964 C.2     1  UNL1        0.0005
      5 C         139.4248  139.9890  168.4768 C.2     1  UNL1        0.0204
      6 C         139.8593  141.0665  169.4257 C.2     1  UNL1        0.1007
      7 N         139.9039  141.1264  170.9238 N.2     1  UNL1       -0.1482
      8 N         140.4355  142.4724  171.3181 N.2     1  UNL1       -0.1467
      9 C         140.7195  143.2444  170.0638 C.2     1  UNL1        0.1197
     10 C         140.3634  142.3754  168.8941 C.2     1  UNL1        0.0226
     11 C         140.4330  142.6070  167.4137 C.3     1  UNL1        0.0588
     12 C         138.9508  141.2946  164.0991 C.3     1  UNL1        0.0977
     13 C         137.6684  141.0510  163.3598 C.3     1  UNL1        0.0233
     14 C         137.8987  139.9314  162.3887 C.3     1  UNL1        0.0189
     15 C         139.3233  139.4830  162.5276 C.3     1  UNL1        0.0689
     16 N         139.9736  140.3254  163.5847 N.3     1  UNL1       -0.2938
     17 H         140.7623  140.8341  163.1853 H       1  UNL1        0.1235
     18 C         138.1615  142.3613  164.7985 C.3     1  UNL1        0.0219
     19 C         138.0749  144.1122  162.8810 C.3     1  UNL1        0.0001
     20 C         138.2491  143.7850  164.3345 C.3     1  UNL1        0.0017
     21 C         138.5108  144.8816  165.3240 C.3     1  UNL1        0.0001
@<TRIPOS>BOND
     1    19    20    1
     2    20    21    1
     3    20    18    1
     4    18    12    1
     5    12     1    1
     6     1     2    2
     7     1     3    1
     8     3     4    2
     9     4     5    1
    10     5     6    2
    11     6     7    1
    12     7     8    2
    13     8     9    1
    14     9    10    2
    15    10    11    1
    16    12    13    1
    17    13    14    1
    18    14    15    1
    19    15    16    1
    20    16    12    1
    21    11     3    1
    22    10     6    1
    23    16    17    1
@<TRIPOS>MOLECULE
*****
 21 23 0 0 0
SMALL
GASTEIGER

@<TRIPOS>ATOM
      1 C         142.1037  142.2900  165.7098 C.2     1  UNL1        0.1818
      2 O         141.1631  143.1856  164.9595 O.2     1  UNL1       -0.2903
      3 C         142.1021  142.2889  167.2098 C.2     1  UNL1        0.0183
      4 C         143.4003  142.2896  167.9611 C.2     1  UNL1        0.0005
      5 C         143.3988  142.2884  169.4612 C.2     1  UNL1        0.0204
      6 C         142.0990  142.2865  170.2098 C.2     1  UNL1        0.1007
      7 N         141.7856  142.2851  171.6767 N.2     1  UNL1       -0.1482
      8 N         140.2937  142.2835  171.8319 N.2     1  UNL1       -0.1467
      9 C         139.6850  142.2839  170.4609 C.2     1  UNL1        0.1197
     10 C         140.8007  142.2858  169.4584 C.2     1  UNL1        0.0226
     11 C         140.8023  142.2870  167.9584 C.3     1  UNL1        0.0588
     12 C         143.0459  141.3955  164.9601 C.3     1  UNL1        0.0977
     13 C         143.7589  140.2891  164.2405 C.3     1  UNL1        0.0233
     14 C         145.0993  140.8054  163.8087 C.3     1  UNL1        0.0189
     15 C         145.2148  142.2308  164.2613 C.3     1  UNL1        0.0689
     16 N         143.9458  142.5955  164.9730 N.3     1  UNL1       -0.2938
     17 H         143.4919  143.3736  164.4945 H       1  UNL1        0.1235
     18 C         141.9490  140.3824  165.1040 C.3     1  UNL1        0.0219
     19 C         143.0225  138.8923  166.9417 C.3     1  UNL1        0.0001
     20 C         142.2518  139.0232  165.6615 C.3     1  UNL1        0.0017
     21 C         141.7839  137.7949  164.9388 C.3     1  UNL1        0.0001
@<TRIPOS>BOND
     1    19    20    1
     2    20    21    1
     3    20    18    1
     4    18    12    1
     5    12     1    1
     6     1     2    2
     7     1     3    1
     8     3     4    2
     9     4     5    1
    10     5     6    2
    11     6     7    1
    12     7     8    2
    13     8     9    1
    14     9    10    2
    15    10    11    1
    16    12    13    1
    17    13    14    1
    18    14    15    1
    19    15    16    1
    20    16    12    1
    21    11     3    1
    22    10     6    1
    23    16    17    1
@<TRIPOS>MOLECULE
*****
 21 23 0 0 0
SMALL
GASTEIGER

@<TRIPOS>ATOM
      1 C         140.3902  141.0184  165.4844 C.2     1  UNL1        0.1818
      2 O         141.1669  141.8092  164.4739 O.2     1  UNL1       -0.2903
      3 C         140.3978  141.4312  166.9266 C.2     1  UNL1        0.0183
      4 C         140.3811  142.8862  167.2903 C.2     1  UNL1        0.0005
      5 C         140.3886  143.2990  168.7325 C.2     1  UNL1        0.0204
      6 C         140.4128  142.2565  169.8107 C.2     1  UNL1        0.1007
      7 N         140.4251  142.3605  171.3071 N.2     1  UNL1       -0.1482
      8 N         140.4494  140.9695  171.8680 N.2     1  UNL1       -0.1467
      9 C         140.4522  140.0060  170.7184 C.2     1  UNL1        0.1197
     10 C         140.4295  140.8014  169.4469 C.2     1  UNL1        0.0226
     11 C         140.4220  140.3888  168.0048 C.3     1  UNL1        0.0588
     12 C         139.6059  139.8148  165.0530 C.3     1  UNL1        0.0977
     13 C         138.5733  138.7965  164.6695 C.3     1  UNL1        0.0233
     14 C         139.2868  137.5321  164.2930 C.3     1  UNL1        0.0189
     15 C         140.7603  137.7688  164.4436 C.3     1  UNL1        0.0689
     16 N         140.9576  139.1796  164.9133 N.3     1  UNL1       -0.2938
     17 H         141.5143  139.6964  164.2326 H       1  UNL1        0.1235
     18 C         138.4182  140.7017  165.2828 C.3     1  UNL1        0.0219
     19 C         137.7529  143.0885  164.5014 C.3     1  UNL1        0.0001
     20 C         137.9571  141.6331  164.2012 C.3     1  UNL1        0.0017
     21 C         137.7003  141.1091  162.8194 C.3     1  UNL1        0.0001
@<TRIPOS>BOND
     1    19    20    1
     2    20    21    1
     3    20    18    1
     4    18    12    1
     5    12     1    1
     6     1     2    2
     7     1     3    1
     8     3     4    2
     9     4     5    1
    10     5     6    2
    11     6     7    1
    12     7     8    2
    13     8     9    1
    14     9    10    2
    15    10    11    1
    16    12    13    1
    17    13    14    1
    18    14    15    1
    19    15    16    1
    20    16    12    1
    21    11     3    1
    22    10     6    1
    23    16    17    1
@<TRIPOS>MOLECULE
*****
 21 23 0 0 0
SMALL
GASTEIGER

@<TRIPOS>ATOM
      1 C         141.5083  141.8478  165.1286 C.2     1  UNL1        0.1818
      2 O         140.8887  141.1215  163.9717 O.2     1  UNL1       -0.2903
      3 C         140.9596  141.6609  166.5122 C.2     1  UNL1        0.0183
      4 C         140.3992  140.3319  166.9237 C.2     1  UNL1        0.0005
      5 C         139.8506  140.1451  168.3073 C.2     1  UNL1        0.0204
      6 C         139.8624  141.2874  169.2792 C.2     1  UNL1        0.1007
      7 N         139.3945  141.4014  170.6998 N.2     1  UNL1       -0.1482
      8 N         139.6657  142.8010  171.1662 N.2     1  UNL1       -0.1467
      9 C         140.3012  143.5520  170.0340 C.2     1  UNL1        0.1197
     10 C         140.4228  142.6166  168.8677 C.2     1  UNL1        0.0226
     11 C         140.9714  142.8033  167.4842 C.3     1  UNL1        0.0588
     12 C         142.6765  142.7609  164.9021 C.3     1  UNL1        0.0977
     13 C         144.0074  143.4480  164.8196 C.3     1  UNL1        0.0233
     14 C         143.8078  144.7634  164.1272 C.3     1  UNL1        0.0189
     15 C         142.3536  144.8894  163.7817 C.3     1  UNL1        0.0689
     16 N         141.6544  143.6519  164.2606 N.3     1  UNL1       -0.2938
     17 H         141.2225  143.1710  163.4716 H       1  UNL1        0.1235
     18 C         143.4544  141.6791  165.5910 C.3     1  UNL1        0.0219
     19 C         143.7273  139.1071  165.3447 C.3     1  UNL1        0.0001
     20 C         143.9409  140.4930  164.8121 C.3     1  UNL1        0.0017
     21 C         144.6410  140.6929  163.5007 C.3     1  UNL1        0.0001
@<TRIPOS>BOND
     1    19    20    1
     2    20    21    1
     3    20    18    1
     4    18    12    1
     5    12     1    1
     6     1     2    2
     7     1     3    1
     8     3     4    2
     9     4     5    1
    10     5     6    2
    11     6     7    1
    12     7     8    2
    13     8     9    1
    14     9    10    2
    15    10    11    1
    16    12    13    1
    17    13    14    1
    18    14    15    1
    19    15    16    1
    20    16    12    1
    21    11     3    1
    22    10     6    1
    23    16    17    1
@<TRIPOS>MOLECULE
*****
 21 23 0 0 0
SMALL
GASTEIGER

@<TRIPOS>ATOM
      1 C         140.2910  141.2360  165.4823 C.2     1  UNL1        0.1818
      2 O         141.4066  140.4447  164.8666 O.2     1  UNL1       -0.2903
      3 C         140.3302  141.5767  166.9426 C.2     1  UNL1        0.0183
      4 C         140.2997  143.0114  167.3791 C.2     1  UNL1        0.0005
      5 C         140.3389  143.3521  168.8394 C.2     1  UNL1        0.0204
      6 C         140.4085  142.2580  169.8632 C.2     1  UNL1        0.1007
      7 N         140.4588  142.2877  171.3620 N.2     1  UNL1       -0.1482
      8 N         140.5203  140.8713  171.8518 N.2     1  UNL1       -0.1467
      9 C         140.5080  139.9662  170.6557 C.2     1  UNL1        0.1197
     10 C         140.4389  140.8233  169.4266 C.2     1  UNL1        0.0226
     11 C         140.3998  140.4826  167.9664 C.3     1  UNL1        0.0588
     12 C         139.1361  141.6866  164.6378 C.3     1  UNL1        0.0977
     13 C         137.8223  141.9185  163.9520 C.3     1  UNL1        0.0233
     14 C         138.0120  143.0139  162.9452 C.3     1  UNL1        0.0189
     15 C         139.4430  143.4591  163.0086 C.3     1  UNL1        0.0689
     16 N         140.1378  142.6388  164.0546 N.3     1  UNL1       -0.2938
     17 H         140.5028  143.2483  164.7865 H       1  UNL1        0.1235
     18 C         138.3759  140.6402  165.3975 C.3     1  UNL1        0.0219
     19 C         138.3379  138.1082  165.9786 C.3     1  UNL1        0.0001
     20 C         138.4338  139.2062  164.9612 C.3     1  UNL1        0.0017
     21 C         138.5875  138.8703  163.5074 C.3     1  UNL1        0.0001
@<TRIPOS>BOND
     1    19    20    1
     2    20    21    1
     3    20    18    1
     4    18    12    1
     5    12     1    1
     6     1     2    2
     7     1     3    1
     8     3     4    2
     9     4     5    1
    10     5     6    2
    11     6     7    1
    12     7     8    2
    13     8     9    1
    14     9    10    2
    15    10    11    1
    16    12    13    1
    17    13    14    1
    18    14    15    1
    19    15    16    1
    20    16    12    1
    21    11     3    1
    22    10     6    1
    23    16    17    1
@<TRIPOS>MOLECULE
*****
 21 23 0 0 0
SMALL
GASTEIGER

@<TRIPOS>ATOM
      1 C         140.7470  140.5758  165.7214 C.2     1  UNL1        0.1818
      2 O         141.3302  141.6670  164.8736 O.2     1  UNL1       -0.2903
      3 C         140.6144  140.7670  167.2033 C.2     1  UNL1        0.0183
      4 C         139.4576  140.1568  167.9377 C.2     1  UNL1        0.0005
      5 C         139.3250  140.3480  169.4196 C.2     1  UNL1        0.0204
      6 C         140.3493  141.1494  170.1670 C.2     1  UNL1        0.1007
      7 N         140.4814  141.5059  171.6180 N.2     1  UNL1       -0.1482
      8 N         141.7200  142.3363  171.7803 N.2     1  UNL1       -0.1467
      9 C         142.3533  142.4931  170.4296 C.2     1  UNL1        0.1197
     10 C         141.5062  141.7596  169.4325 C.2     1  UNL1        0.0226
     11 C         141.6387  141.5683  167.9507 C.3     1  UNL1        0.0588
     12 C         140.2964  139.2932  165.0874 C.3     1  UNL1        0.0977
     13 C         140.0707  137.8824  164.6303 C.3     1  UNL1        0.0233
     14 C         138.9492  137.8917  163.6344 C.3     1  UNL1        0.0189
     15 C         138.4816  139.3081  163.4760 C.3     1  UNL1        0.0689
     16 N         139.3142  140.1743  164.3740 N.3     1  UNL1       -0.2938
     17 H         138.7158  140.6457  165.0523 H       1  UNL1        0.1235
     18 C         141.3728  138.6802  165.9334 C.3     1  UNL1        0.0219
     19 C         143.0082  138.6856  163.9146 C.3     1  UNL1        0.0001
     20 C         142.7605  138.5253  165.3853 C.3     1  UNL1        0.0017
     21 C         143.9004  138.2100  166.3079 C.3     1  UNL1        0.0001
@<TRIPOS>BOND
     1    19    20    1
     2    20    21    1
     3    20    18    1
     4    18    12    1
     5    12     1    1
     6     1     2    2
     7     1     3    1
     8     3     4    2
     9     4     5    1
    10     5     6    2
    11     6     7    1
    12     7     8    2
    13     8     9    1
    14     9    10    2
    15    10    11    1
    16    12    13    1
    17    13    14    1
    18    14    15    1
    19    15    16    1
    20    16    12    1
    21    11     3    1
    22    10     6    1
    23    16    17    1
@<TRIPOS>MOLECULE
*****
 21 23 0 0 0
SMALL
GASTEIGER

@<TRIPOS>ATOM
      1 C         141.5551  140.3295  165.9003 C.2     1  UNL1        0.1818
      2 O         141.9514  141.4723  165.0132 O.2     1  UNL1       -0.2903
      3 C         141.6142  140.4819  167.3914 C.2     1  UNL1        0.0183
      4 C         142.5338  139.6140  168.1981 C.2     1  UNL1        0.0005
      5 C         142.5929  139.7665  169.6893 C.2     1  UNL1        0.0204
      6 C         141.7324  140.7869  170.3735 C.2     1  UNL1        0.1007
      7 N         141.5765  141.1627  171.8172 N.2     1  UNL1       -0.1482
      8 N         140.5605  142.2629  171.9027 N.2     1  UNL1       -0.1467
      9 C         140.0885  142.5671  170.5118 C.2     1  UNL1        0.1197
     10 C         140.8127  141.6548  169.5666 C.2     1  UNL1        0.0226
     11 C         140.7537  141.5023  168.0756 C.3     1  UNL1        0.0588
     12 C         141.0997  139.0342  165.2963 C.3     1  UNL1        0.0977
     13 C         140.4296  137.7458  164.9207 C.3     1  UNL1        0.0233
     14 C         141.1381  137.1869  163.7226 C.3     1  UNL1        0.0189
     15 C         142.2461  138.1298  163.3577 C.3     1  UNL1        0.0689
     16 N         142.2225  139.2715  164.3303 N.3     1  UNL1       -0.2938
     17 H         142.0705  140.1481  163.8315 H       1  UNL1        0.1235
     18 C         140.0722  139.0677  166.3886 C.3     1  UNL1        0.0219
     19 C         137.6071  138.3528  166.7914 C.3     1  UNL1        0.0001
     20 C         138.6159  139.1747  166.0453 C.3     1  UNL1        0.0017
     21 C         138.1685  140.1038  164.9560 C.3     1  UNL1        0.0001
@<TRIPOS>BOND
     1    19    20    1
     2    20    21    1
     3    20    18    1
     4    18    12    1
     5    12     1    1
     6     1     2    2
     7     1     3    1
     8     3     4    2
     9     4     5    1
    10     5     6    2
    11     6     7    1
    12     7     8    2
    13     8     9    1
    14     9    10    2
    15    10    11    1
    16    12    13    1
    17    13    14    1
    18    14    15    1
    19    15    16    1
    20    16    12    1
    21    11     3    1
    22    10     6    1
    23    16    17    1
@<TRIPOS>MOLECULE
*****
 21 23 0 0 0
SMALL
GASTEIGER

@<TRIPOS>ATOM
      1 C         141.2957  142.4370  165.6518 C.2     1  UNL1        0.1818
      2 O         142.4289  142.8441  164.7575 O.2     1  UNL1       -0.2903
      3 C         141.5121  142.3218  167.1317 C.2     1  UNL1        0.0183
      4 C         142.8626  141.9459  167.6651 C.2     1  UNL1        0.0005
      5 C         143.0791  141.8307  169.1450 C.2     1  UNL1        0.0204
      6 C         141.9449  142.0914  170.0914 C.2     1  UNL1        0.1007
      7 N         141.8583  142.0551  171.5884 N.2     1  UNL1       -0.1482
      8 N         140.4542  142.4087  171.9801 N.2     1  UNL1       -0.1467
      9 C         139.6730  142.6634  170.7252 C.2     1  UNL1        0.1197
     10 C         140.5943  142.4673  169.5579 C.2     1  UNL1        0.0226
     11 C         140.3779  142.5826  168.0780 C.3     1  UNL1        0.0588
     12 C         139.9458  142.1451  165.0664 C.3     1  UNL1        0.0977
     13 C         138.7020  141.5585  164.4673 C.3     1  UNL1        0.0233
     14 C         137.7082  142.6670  164.2847 C.3     1  UNL1        0.0189
     15 C         138.3377  143.9387  164.7709 C.3     1  UNL1        0.0689
     16 N         139.7206  143.6162  165.2540 N.3     1  UNL1       -0.2938
     17 H         139.8071  143.8565  166.2415 H       1  UNL1        0.1235
     18 C         140.4532  140.7351  165.0011 C.3     1  UNL1        0.0219
     19 C         139.2596  138.4591  164.6201 C.3     1  UNL1        0.0001
     20 C         139.6077  139.6091  165.5181 C.3     1  UNL1        0.0017
     21 C         139.1103  139.6331  166.9330 C.3     1  UNL1        0.0001
@<TRIPOS>BOND
     1    19    20    1
     2    20    21    1
     3    20    18    1
     4    18    12    1
     5    12     1    1
     6     1     2    2
     7     1     3    1
     8     3     4    2
     9     4     5    1
    10     5     6    2
    11     6     7    1
    12     7     8    2
    13     8     9    1
    14     9    10    2
    15    10    11    1
    16    12    13    1
    17    13    14    1
    18    14    15    1
    19    15    16    1
    20    16    12    1
    21    11     3    1
    22    10     6    1
    23    16    17    1
@<TRIPOS>MOLECULE
*****
 21 23 0 0 0
SMALL
GASTEIGER

@<TRIPOS>ATOM
      1 C         141.3029  140.7965  165.8516 C.2     1  UNL1        0.1818
      2 O         140.0813  141.1138  165.0412 O.2     1  UNL1       -0.2903
      3 C         141.2302  140.7977  167.3499 C.2     1  UNL1        0.0183
      4 C         141.7659  139.6325  168.1277 C.2     1  UNL1        0.0005
      5 C         141.6932  139.6337  169.6260 C.2     1  UNL1        0.0204
      6 C         141.0848  140.8003  170.3463 C.2     1  UNL1        0.1007
      7 N         140.8763  141.0814  171.8049 N.2     1  UNL1       -0.1482
      8 N         140.2118  142.4204  171.9285 N.2     1  UNL1       -0.1467
      9 C         140.0096  142.9669  170.5463 C.2     1  UNL1        0.1197
     10 C         140.5491  141.9656  169.5685 C.2     1  UNL1        0.0226
     11 C         140.6218  141.9643  168.0702 C.3     1  UNL1        0.0588
     12 C         142.5974  140.4780  165.1639 C.3     1  UNL1        0.0977
     13 C         143.9964  140.4140  164.6265 C.3     1  UNL1        0.0233
     14 C         144.0902  139.2236  163.7187 C.3     1  UNL1        0.0189
     15 C         142.7492  138.5520  163.6950 C.3     1  UNL1        0.0689
     16 N         141.8266  139.3272  164.5881 N.3     1  UNL1       -0.2938
     17 H         141.4874  138.7271  165.3399 H       1  UNL1        0.1235
     18 C         143.0976  141.6955  165.8834 C.3     1  UNL1        0.0219
     19 C         142.4639  143.4048  164.0322 C.3     1  UNL1        0.0001
     20 C         143.3947  142.9503  165.1172 C.3     1  UNL1        0.0017
     21 C         144.6226  143.7507  165.4359 C.3     1  UNL1        0.0001
@<TRIPOS>BOND
     1    19    20    1
     2    20    21    1
     3    20    18    1
     4    18    12    1
     5    12     1    1
     6     1     2    2
     7     1     3    1
     8     3     4    2
     9     4     5    1
    10     5     6    2
    11     6     7    1
    12     7     8    2
    13     8     9    1
    14     9    10    2
    15    10    11    1
    16    12    13    1
    17    13    14    1
    18    14    15    1
    19    15    16    1
    20    16    12    1
    21    11     3    1
    22    10     6    1
    23    16    17    1
