@<TRIPOS>MOLECULE
*****
 36 40 0 0 0
SMALL
GASTEIGER

@<TRIPOS>ATOM
      1 C         143.7547  137.7153  166.8353 C.3     1  UNL1        0.0323
      2 C         142.9625  138.9819  166.7002 C.ar    1  UNL1       -0.0060
      3 C         142.4355  139.8169  167.8294 C.ar    1  UNL1        0.0438
      4 C         141.7055  140.9869  167.2393 C.ar    1  UNL1        0.0435
      5 N         141.7813  140.8750  165.7454 N.ar    1  UNL1       -0.3137
      6 C         142.5581  139.6359  165.4122 C.ar    1  UNL1        0.0372
      7 C         143.1445  138.7052  164.3925 C.3     1  UNL1        0.0452
      8 C         143.3833  138.3324  162.9593 C.3     1  UNL1        0.0235
      9 C         143.2106  138.6173  161.4967 C.3     1  UNL1        0.0725
     10 N         142.6726  139.4836  160.3967 N.3     1  UNL1       -0.2724
     11 C         143.2590  138.5530  159.3770 C.3     1  UNL1        0.0721
     12 C         143.0863  138.8379  157.9145 C.3     1  UNL1        0.0174
     13 C         142.3271  140.0535  157.4718 C.3     1  UNL1        0.0029
     14 C         141.7407  140.9842  158.4915 C.3     1  UNL1        0.0177
     15 C         141.9135  140.6992  159.9540 C.3     1  UNL1        0.0770
     16 C         141.1366  141.9384  160.2872 C.3     1  UNL1        0.1032
     17 N         140.5502  142.8690  161.3070 N.pl3   1  UNL1       -0.3314
     18 C         140.3114  143.2419  162.7402 C.ar    1  UNL1        0.0505
     19 C         140.4841  142.9569  164.2027 C.ar    1  UNL1        0.0319
     20 C         141.0221  142.0906  165.3027 C.ar    1  UNL1        0.0646
     21 C         140.2429  143.3329  165.7381 C.ar    1  UNL1        0.0177
     22 C         139.5715  144.4106  164.9394 C.ar    1  UNL1        0.0072
     23 C         139.6057  144.3651  163.4405 C.ar    1  UNL1        0.0663
     24 C         141.0660  142.0031  168.1386 C.3     1  UNL1        0.0446
     25 C         141.1566  141.8492  169.6279 C.3     1  UNL1        0.0128
     26 C         140.9713  142.1363  171.0884 C.3     1  UNL1        0.0008
     27 C         140.3623  143.1189  169.5451 C.3     1  UNL1        0.0008
     28 C         141.8867  140.6792  170.2180 C.3     1  UNL1        0.0695
     29 C         142.5261  139.6630  169.3187 C.2     1  UNL1        0.1739
     30 O         143.2561  138.4931  169.9088 O.2     1  UNL1       -0.2913
     31 H         140.1095  143.5764  160.7829 H       1  UNL1        0.1469
     32 C         138.9342  145.4428  162.6419 C.2     1  UNL1        0.2439
     33 N         139.7449  146.5674  162.0693 N.am    1  UNL1       -0.3253
     34 O         137.4521  145.3957  162.4160 O.2     1  UNL1       -0.2703
     35 H         140.7177  146.5982  162.2176 H       1  UNL1        0.1453
     36 H         139.3042  147.2748  161.5452 H       1  UNL1        0.1453
@<TRIPOS>BOND
     1     1     2    1
     2     2     3   ar
     3     3     4   ar
     4     4     5   ar
     5     5     6   ar
     6     6     7    1
     7     7     8    1
     8     8     9    1
     9     9    10    1
    10    10    11    1
    11    11    12    1
    12    12    13    1
    13    13    14    1
    14    15    14    1
    15    15    16    1
    16    16    17    1
    17    17    18    1
    18    18    19   ar
    19    19    20   ar
    20    20    21   ar
    21    21    22   ar
    22    22    23   ar
    23    23    32    1
    24    32    33   am
    25    32    34    2
    26     4    24    1
    27    24    25    1
    28    25    26    1
    29    25    27    1
    30    25    28    1
    31    28    29    1
    32    29    30    2
    33     6     2   ar
    34    15    10    1
    35    23    18   ar
    36    29     3    1
    37    20     5    1
    38    17    31    1
    39    33    35    1
    40    33    36    1
@<TRIPOS>MOLECULE
*****
 36 40 0 0 0
SMALL
GASTEIGER

@<TRIPOS>ATOM
      1 C         137.5747  137.9304  166.6206 C.3     1  UNL1        0.0323
      2 C         138.5663  139.0501  166.5071 C.ar    1  UNL1       -0.0060
      3 C         139.0265  139.9370  167.6259 C.ar    1  UNL1        0.0438
      4 C         140.0164  140.9146  167.0651 C.ar    1  UNL1        0.0435
      5 N         140.1679  140.6320  165.5998 N.ar    1  UNL1       -0.3137
      6 C         139.2717  139.4797  165.2549 C.ar    1  UNL1        0.0372
      7 C         138.7208  138.5203  164.2420 C.3     1  UNL1        0.0452
      8 C         138.6629  138.0110  162.8323 C.3     1  UNL1        0.0235
      9 C         139.1134  138.0882  161.4036 C.3     1  UNL1        0.0725
     10 N         139.9516  138.7312  160.3387 N.3     1  UNL1       -0.2724
     11 C         139.4007  137.7718  159.3258 C.3     1  UNL1        0.0721
     12 C         139.8512  137.8490  157.8972 C.3     1  UNL1        0.0174
     13 C         140.8526  138.8855  157.4815 C.3     1  UNL1        0.0029
     14 C         141.4035  139.8449  158.4944 C.3     1  UNL1        0.0177
     15 C         140.9530  139.7677  159.9231 C.3     1  UNL1        0.0770
     16 C         141.8492  140.9200  160.2679 C.3     1  UNL1        0.1032
     17 N         142.4001  141.8794  161.2810 N.pl3   1  UNL1       -0.3314
     18 C         142.4581  142.3887  162.6907 C.ar    1  UNL1        0.0505
     19 C         142.0076  142.3115  164.1193 C.ar    1  UNL1        0.0319
     20 C         141.1693  141.6685  165.1841 C.ar    1  UNL1        0.0646
     21 C         142.0517  142.8361  165.6292 C.ar    1  UNL1        0.0177
     22 C         143.0040  143.7055  164.8627 C.ar    1  UNL1        0.0072
     23 C         143.2072  143.4818  163.3935 C.ar    1  UNL1        0.0663
     24 C         140.6519  141.9360  167.9613 C.3     1  UNL1        0.0446
     25 C         140.2976  141.9797  169.4182 C.3     1  UNL1        0.0128
     26 C         140.2856  142.4155  170.8534 C.3     1  UNL1        0.0008
     27 C         141.2832  143.1086  169.3559 C.3     1  UNL1        0.0008
     28 C         139.3077  141.0021  169.9789 C.3     1  UNL1        0.0695
     29 C         138.6722  139.9807  169.0827 C.2     1  UNL1        0.1739
     30 O         137.6824  139.0031  169.6435 O.2     1  UNL1       -0.2913
     31 H         143.0251  142.4500  160.7780 H       1  UNL1        0.1469
     32 C         144.1595  144.3512  162.6271 C.2     1  UNL1        0.2439
     33 N         144.2738  145.8101  162.9564 N.am    1  UNL1       -0.3253
     34 O         144.9973  143.7616  161.5315 O.2     1  UNL1       -0.2703
     35 H         143.7239  146.1970  163.6755 H       1  UNL1        0.1453
     36 H         144.8988  146.3808  162.4535 H       1  UNL1        0.1453
@<TRIPOS>BOND
     1     1     2    1
     2     2     3   ar
     3     3     4   ar
     4     4     5   ar
     5     5     6   ar
     6     6     7    1
     7     7     8    1
     8     8     9    1
     9     9    10    1
    10    10    11    1
    11    11    12    1
    12    12    13    1
    13    13    14    1
    14    15    14    1
    15    15    16    1
    16    16    17    1
    17    17    18    1
    18    18    19   ar
    19    19    20   ar
    20    20    21   ar
    21    21    22   ar
    22    22    23   ar
    23    23    32    1
    24    32    33   am
    25    32    34    2
    26     4    24    1
    27    24    25    1
    28    25    26    1
    29    25    27    1
    30    25    28    1
    31    28    29    1
    32    29    30    2
    33     6     2   ar
    34    15    10    1
    35    23    18   ar
    36    29     3    1
    37    20     5    1
    38    17    31    1
    39    33    35    1
    40    33    36    1
@<TRIPOS>MOLECULE
*****
 36 40 0 0 0
SMALL
GASTEIGER

@<TRIPOS>ATOM
      1 C         144.9864  143.3905  166.1650 C.3     1  UNL1        0.0323
      2 C         143.7198  142.6189  165.9403 C.ar    1  UNL1       -0.0060
      3 C         142.7857  142.1278  167.0061 C.ar    1  UNL1        0.0438
      4 C         141.6535  141.4084  166.3347 C.ar    1  UNL1        0.0435
      5 N         141.8879  141.4549  164.8539 N.ar    1  UNL1       -0.3137
      6 C         143.1649  142.2031  164.6101 C.ar    1  UNL1        0.0372
      7 C         144.1866  142.7540  163.6600 C.3     1  UNL1        0.0452
      8 C         144.6793  142.9599  162.2583 C.3     1  UNL1        0.0235
      9 C         144.5109  142.7658  160.7804 C.3     1  UNL1        0.0725
     10 N         143.7265  142.2237  159.6225 N.3     1  UNL1       -0.2724
     11 C         144.7482  142.7745  158.6725 C.3     1  UNL1        0.0721
     12 C         144.5797  142.5804  157.1947 C.3     1  UNL1        0.0174
     13 C         143.3896  141.8354  156.6670 C.3     1  UNL1        0.0029
     14 C         142.3679  141.2846  157.6170 C.3     1  UNL1        0.0177
     15 C         142.5363  141.4787  159.0948 C.3     1  UNL1        0.0770
     16 C         141.2593  140.7305  159.3386 C.3     1  UNL1        0.1032
     17 N         140.2376  140.1796  160.2887 N.pl3   1  UNL1       -0.3314
     18 C         139.7450  139.9737  161.6905 C.ar    1  UNL1        0.0505
     19 C         139.9134  140.1678  163.1683 C.ar    1  UNL1        0.0319
     20 C         140.6978  140.7099  164.3262 C.ar    1  UNL1        0.0646
     21 C         139.4093  139.9613  164.6716 C.ar    1  UNL1        0.0177
     22 C         138.3872  139.2951  163.7990 C.ar    1  UNL1        0.0072
     23 C         138.5550  139.3012  162.3084 C.ar    1  UNL1        0.0663
     24 C         140.5554  140.8038  167.1586 C.3     1  UNL1        0.0446
     25 C         140.5894  140.9187  168.6538 C.3     1  UNL1        0.0128
     26 C         140.1810  140.7651  170.0889 C.3     1  UNL1        0.0008
     27 C         139.3155  140.1460  168.4809 C.3     1  UNL1        0.0008
     28 C         141.7216  141.6380  169.3252 C.3     1  UNL1        0.0695
     29 C         142.8197  142.2426  168.5013 C.2     1  UNL1        0.1739
     30 O         143.9518  142.9619  169.1727 O.2     1  UNL1       -0.2913
     31 H         139.5668  139.7423  159.7161 H       1  UNL1        0.1469
     32 C         137.5329  138.6349  161.4359 C.2     1  UNL1        0.2439
     33 N         137.1203  137.2193  161.7110 N.am    1  UNL1       -0.3253
     34 O         136.9235  139.3843  160.2883 O.2     1  UNL1       -0.2703
     35 H         137.5203  136.7275  162.4642 H       1  UNL1        0.1453
     36 H         136.4495  136.7819  161.1383 H       1  UNL1        0.1453
@<TRIPOS>BOND
     1     1     2    1
     2     2     3   ar
     3     3     4   ar
     4     4     5   ar
     5     5     6   ar
     6     6     7    1
     7     7     8    1
     8     8     9    1
     9     9    10    1
    10    10    11    1
    11    11    12    1
    12    12    13    1
    13    13    14    1
    14    15    14    1
    15    15    16    1
    16    16    17    1
    17    17    18    1
    18    18    19   ar
    19    19    20   ar
    20    20    21   ar
    21    21    22   ar
    22    22    23   ar
    23    23    32    1
    24    32    33   am
    25    32    34    2
    26     4    24    1
    27    24    25    1
    28    25    26    1
    29    25    27    1
    30    25    28    1
    31    28    29    1
    32    29    30    2
    33     6     2   ar
    34    15    10    1
    35    23    18   ar
    36    29     3    1
    37    20     5    1
    38    17    31    1
    39    33    35    1
    40    33    36    1
@<TRIPOS>MOLECULE
*****
 36 40 0 0 0
SMALL
GASTEIGER

@<TRIPOS>ATOM
      1 C         141.3164  137.5895  157.9573 C.3     1  UNL1        0.0323
      2 C         142.0519  138.7446  158.5694 C.ar    1  UNL1       -0.0060
      3 C         143.0901  139.5880  157.8907 C.ar    1  UNL1        0.0438
      4 C         143.5583  140.6238  158.8695 C.ar    1  UNL1        0.0435
      5 N         142.8094  140.4204  160.1532 N.ar    1  UNL1       -0.3137
      6 C         141.8785  139.2591  159.9677 C.ar    1  UNL1        0.0372
      7 C         140.8298  138.3350  160.5121 C.3     1  UNL1        0.0452
      8 C         139.9443  137.8959  161.6404 C.3     1  UNL1        0.0235
      9 C         139.4593  138.0595  163.0505 C.3     1  UNL1        0.0725
     10 N         139.5048  138.7817  164.3643 N.3     1  UNL1       -0.2724
     11 C         138.4561  137.8577  164.9086 C.3     1  UNL1        0.0721
     12 C         137.9712  138.0213  166.3186 C.3     1  UNL1        0.0174
     13 C         138.5350  139.1088  167.1842 C.3     1  UNL1        0.0029
     14 C         139.5837  140.0329  166.6399 C.3     1  UNL1        0.0177
     15 C         140.0686  139.8693  165.2299 C.3     1  UNL1        0.0770
     16 C         140.9996  141.0307  165.4154 C.3     1  UNL1        0.1032
     17 N         142.0484  141.9548  164.8710 N.pl3   1  UNL1       -0.3314
     18 C         142.9338  142.3938  163.7426 C.ar    1  UNL1        0.0505
     19 C         143.4187  142.2303  162.3327 C.ar    1  UNL1        0.0319
     20 C         143.3732  141.5080  161.0188 C.ar    1  UNL1        0.0646
     21 C         144.3526  142.6792  161.1148 C.ar    1  UNL1        0.0177
     22 C         144.6680  143.6160  162.2430 C.ar    1  UNL1        0.0072
     23 C         143.9586  143.4734  163.5569 C.ar    1  UNL1        0.0663
     24 C         144.6061  141.6183  158.4654 C.3     1  UNL1        0.0446
     25 C         145.1857  141.5771  157.0826 C.3     1  UNL1        0.0128
     26 C         146.0296  141.9392  155.8966 C.3     1  UNL1        0.0008
     27 C         145.9469  142.7385  157.6495 C.3     1  UNL1        0.0008
     28 C         144.7175  140.5413  156.1037 C.3     1  UNL1        0.0695
     29 C         143.6697  139.5468  156.5078 C.2     1  UNL1        0.1739
     30 O         143.2016  138.5112  155.5290 O.2     1  UNL1       -0.2913
     31 H         142.2554  142.5697  165.6114 H       1  UNL1        0.1469
     32 C         144.2740  144.4102  164.6851 C.2     1  UNL1        0.2439
     33 N         144.9369  143.8923  165.9270 N.am    1  UNL1       -0.3253
     34 O         143.9265  145.8650  164.5713 O.2     1  UNL1       -0.2703
     35 H         145.1650  142.9375  166.0016 H       1  UNL1        0.1453
     36 H         145.1440  144.5072  166.6674 H       1  UNL1        0.1453
@<TRIPOS>BOND
     1     1     2    1
     2     2     3   ar
     3     3     4   ar
     4     4     5   ar
     5     5     6   ar
     6     6     7    1
     7     7     8    1
     8     8     9    1
     9     9    10    1
    10    10    11    1
    11    11    12    1
    12    12    13    1
    13    13    14    1
    14    15    14    1
    15    15    16    1
    16    16    17    1
    17    17    18    1
    18    18    19   ar
    19    19    20   ar
    20    20    21   ar
    21    21    22   ar
    22    22    23   ar
    23    23    32    1
    24    32    33   am
    25    32    34    2
    26     4    24    1
    27    24    25    1
    28    25    26    1
    29    25    27    1
    30    25    28    1
    31    28    29    1
    32    29    30    2
    33     6     2   ar
    34    15    10    1
    35    23    18   ar
    36    29     3    1
    37    20     5    1
    38    17    31    1
    39    33    35    1
    40    33    36    1
@<TRIPOS>MOLECULE
*****
 36 40 0 0 0
SMALL
GASTEIGER

@<TRIPOS>ATOM
      1 C         142.9438  136.9147  158.1658 C.3     1  UNL1        0.0323
      2 C         142.7483  138.4004  158.2311 C.ar    1  UNL1       -0.0060
      3 C         143.2188  139.3972  157.2139 C.ar    1  UNL1        0.0438
      4 C         142.8092  140.7631  157.6794 C.ar    1  UNL1        0.0435
      5 N         142.0855  140.6104  158.9843 N.ar    1  UNL1       -0.3137
      6 C         142.0478  139.1502  159.3254 C.ar    1  UNL1        0.0372
      7 C         141.6409  138.0426  160.2513 C.3     1  UNL1        0.0452
      8 C         140.9736  137.5843  161.5142 C.3     1  UNL1        0.0235
      9 C         140.2249  137.8982  162.7756 C.3     1  UNL1        0.0725
     10 N         139.5954  138.9001  163.6974 N.3     1  UNL1       -0.2724
     11 C         139.1884  137.7925  164.6233 C.3     1  UNL1        0.0721
     12 C         138.4397  138.1064  165.8846 C.3     1  UNL1        0.0174
     13 C         138.0980  139.5279  166.2199 C.3     1  UNL1        0.0029
     14 C         138.5049  140.6356  165.2939 C.3     1  UNL1        0.0177
     15 C         139.2536  140.3217  164.0327 C.3     1  UNL1        0.0770
     16 C         139.2913  141.7818  163.6916 C.3     1  UNL1        0.1032
     17 N         139.6983  142.8895  162.7656 N.pl3   1  UNL1       -0.3314
     18 C         140.3655  143.3478  161.5027 C.ar    1  UNL1        0.0505
     19 C         141.1142  143.0339  160.2414 C.ar    1  UNL1        0.0319
     20 C         141.7437  142.0320  159.3196 C.ar    1  UNL1        0.0646
     21 C         141.8313  143.4973  158.8895 C.ar    1  UNL1        0.0177
     22 C         141.3285  144.7518  159.5403 C.ar    1  UNL1        0.0072
     23 C         140.5956  144.6771  160.8469 C.ar    1  UNL1        0.0663
     24 C         143.1481  141.9695  156.8547 C.3     1  UNL1        0.0446
     25 C         143.8966  141.8099  155.5647 C.3     1  UNL1        0.0128
     26 C         144.5861  142.1680  154.2816 C.3     1  UNL1        0.0008
     27 C         143.7265  143.3001  155.5845 C.3     1  UNL1        0.0008
     28 C         144.3063  140.4441  155.0992 C.3     1  UNL1        0.0695
     29 C         143.9673  139.2377  155.9238 C.2     1  UNL1        0.1739
     30 O         144.3769  137.8719  155.4584 O.2     1  UNL1       -0.2913
     31 H         139.3683  143.7129  163.1926 H       1  UNL1        0.1469
     32 C         140.0928  145.9316  161.4976 C.2     1  UNL1        0.2439
     33 N         140.6369  146.3554  162.8296 N.am    1  UNL1       -0.3253
     34 O         139.0459  146.7621  160.8162 O.2     1  UNL1       -0.2703
     35 H         141.3240  145.8103  163.2768 H       1  UNL1        0.1453
     36 H         140.3069  147.1788  163.2567 H       1  UNL1        0.1453
@<TRIPOS>BOND
     1     1     2    1
     2     2     3   ar
     3     3     4   ar
     4     4     5   ar
     5     5     6   ar
     6     6     7    1
     7     7     8    1
     8     8     9    1
     9     9    10    1
    10    10    11    1
    11    11    12    1
    12    12    13    1
    13    13    14    1
    14    15    14    1
    15    15    16    1
    16    16    17    1
    17    17    18    1
    18    18    19   ar
    19    19    20   ar
    20    20    21   ar
    21    21    22   ar
    22    22    23   ar
    23    23    32    1
    24    32    33   am
    25    32    34    2
    26     4    24    1
    27    24    25    1
    28    25    26    1
    29    25    27    1
    30    25    28    1
    31    28    29    1
    32    29    30    2
    33     6     2   ar
    34    15    10    1
    35    23    18   ar
    36    29     3    1
    37    20     5    1
    38    17    31    1
    39    33    35    1
    40    33    36    1
@<TRIPOS>MOLECULE
*****
 36 40 0 0 0
SMALL
GASTEIGER

@<TRIPOS>ATOM
      1 C         141.9759  144.6539  163.7934 C.3     1  UNL1        0.0323
      2 C         141.7553  143.3322  163.1193 C.ar    1  UNL1       -0.0060
      3 C         141.9582  141.9815  163.7393 C.ar    1  UNL1        0.0438
      4 C         141.6214  140.9437  162.7099 C.ar    1  UNL1        0.0435
      5 N         141.2103  141.6529  161.4538 N.ar    1  UNL1       -0.3137
      6 C         141.2931  143.1291  161.7067 C.ar    1  UNL1        0.0372
      7 C         141.1352  144.5406  161.2243 C.3     1  UNL1        0.0452
      8 C         140.7789  145.5092  160.1358 C.3     1  UNL1        0.0235
      9 C         140.3198  145.7754  158.7328 C.3     1  UNL1        0.0725
     10 N         139.8808  145.2678  157.3913 N.3     1  UNL1       -0.2724
     11 C         139.7230  146.6793  156.9089 C.3     1  UNL1        0.0721
     12 C         139.2638  146.9454  155.5059 C.3     1  UNL1        0.0174
     13 C         138.9626  145.8001  154.5854 C.3     1  UNL1        0.0029
     14 C         139.1205  144.3886  155.0678 C.3     1  UNL1        0.0177
     15 C         139.5796  144.1225  156.4707 C.3     1  UNL1        0.0770
     16 C         139.4969  142.6463  156.2178 C.3     1  UNL1        0.1032
     17 N         139.6548  141.2348  156.7002 N.pl3   1  UNL1       -0.3314
     18 C         140.0110  140.2662  157.7888 C.ar    1  UNL1        0.0505
     19 C         140.4701  140.0000  159.1917 C.ar    1  UNL1        0.0319
     20 C         140.9091  140.5076  160.5332 C.ar    1  UNL1        0.0646
     21 C         140.8551  138.9878  160.3682 C.ar    1  UNL1        0.0177
     22 C         140.4719  138.1322  159.1972 C.ar    1  UNL1        0.0072
     23 C         140.0499  138.7714  157.9075 C.ar    1  UNL1        0.0663
     24 C         141.7325  139.4868  163.0495 C.3     1  UNL1        0.0446
     25 C         142.1805  139.0678  164.4184 C.3     1  UNL1        0.0128
     26 C         142.5568  138.1814  165.5684 C.3     1  UNL1        0.0008
     27 C         141.9744  137.7222  163.7885 C.3     1  UNL1        0.0008
     28 C         142.5173  140.1056  165.4477 C.3     1  UNL1        0.0695
     29 C         142.4061  141.5625  165.1081 C.2     1  UNL1        0.1739
     30 O         142.7429  142.6003  166.1374 O.2     1  UNL1       -0.2913
     31 H         139.4033  140.6732  155.9317 H       1  UNL1        0.1469
     32 C         139.6667  137.9157  156.7366 C.2     1  UNL1        0.2439
     33 N         140.4338  136.6609  156.4418 N.am    1  UNL1       -0.3253
     34 O         138.5165  138.3150  155.8604 O.2     1  UNL1       -0.2703
     35 H         141.1887  136.3988  157.0169 H       1  UNL1        0.1453
     36 H         140.1823  136.0992  155.6733 H       1  UNL1        0.1453
@<TRIPOS>BOND
     1     1     2    1
     2     2     3   ar
     3     3     4   ar
     4     4     5   ar
     5     5     6   ar
     6     6     7    1
     7     7     8    1
     8     8     9    1
     9     9    10    1
    10    10    11    1
    11    11    12    1
    12    12    13    1
    13    13    14    1
    14    15    14    1
    15    15    16    1
    16    16    17    1
    17    17    18    1
    18    18    19   ar
    19    19    20   ar
    20    20    21   ar
    21    21    22   ar
    22    22    23   ar
    23    23    32    1
    24    32    33   am
    25    32    34    2
    26     4    24    1
    27    24    25    1
    28    25    26    1
    29    25    27    1
    30    25    28    1
    31    28    29    1
    32    29    30    2
    33     6     2   ar
    34    15    10    1
    35    23    18   ar
    36    29     3    1
    37    20     5    1
    38    17    31    1
    39    33    35    1
    40    33    36    1
@<TRIPOS>MOLECULE
*****
 36 40 0 0 0
SMALL
GASTEIGER

@<TRIPOS>ATOM
      1 C         141.5158  137.7632  164.0400 C.3     1  UNL1        0.0323
      2 C         141.3351  139.1703  163.5525 C.ar    1  UNL1       -0.0060
      3 C         140.9124  140.3443  164.3849 C.ar    1  UNL1        0.0438
      4 C         140.8615  141.5499  163.4939 C.ar    1  UNL1        0.0435
      5 N         141.2527  141.1210  162.1108 N.ar    1  UNL1       -0.3137
      6 C         141.5454  139.6503  162.1470 C.ar    1  UNL1        0.0372
      7 C         141.9571  138.3901  161.4454 C.3     1  UNL1        0.0452
      8 C         142.3773  137.6779  160.1939 C.3     1  UNL1        0.0235
      9 C         142.6936  137.7047  158.7278 C.3     1  UNL1        0.0725
     10 N         142.8211  138.4633  157.4401 N.3     1  UNL1       -0.2724
     11 C         143.2328  137.2030  156.7385 C.3     1  UNL1        0.0721
     12 C         143.5490  137.2299  155.2725 C.3     1  UNL1        0.0174
     13 C         143.4536  138.5170  154.5081 C.3     1  UNL1        0.0029
     14 C         143.0420  139.7772  155.2097 C.3     1  UNL1        0.0177
     15 C         142.7257  139.7504  156.6757 C.3     1  UNL1        0.0770
     16 C         142.4330  141.2210  156.6395 C.3     1  UNL1        0.1032
     17 N         142.0213  142.4813  157.3411 N.pl3   1  UNL1       -0.3314
     18 C         141.6011  143.1935  158.5926 C.ar    1  UNL1        0.0505
     19 C         141.2848  143.1666  160.0586 C.ar    1  UNL1        0.0319
     20 C         141.1573  142.4081  161.3464 C.ar    1  UNL1        0.0646
     21 C         140.8386  143.9030  161.4060 C.ar    1  UNL1        0.0177
     22 C         140.8552  144.9619  160.3437 C.ar    1  UNL1        0.0072
     23 C         141.2365  144.6071  158.9370 C.ar    1  UNL1        0.0663
     24 C         140.4654  142.8826  164.0571 C.3     1  UNL1        0.0446
     25 C         140.1203  143.0097  165.5113 C.3     1  UNL1        0.0128
     26 C         139.7077  143.6303  166.8130 C.3     1  UNL1        0.0008
     27 C         139.9260  144.4308  165.0724 C.3     1  UNL1        0.0008
     28 C         140.1712  141.8041  166.4023 C.3     1  UNL1        0.0695
     29 C         140.5673  140.4714  165.8391 C.2     1  UNL1        0.1739
     30 O         140.6182  139.2658  166.7301 O.2     1  UNL1       -0.2913
     31 H         142.0323  143.1763  156.6439 H       1  UNL1        0.1469
     32 C         141.2531  145.6661  157.8747 C.2     1  UNL1        0.2439
     33 N         142.5465  146.3195  157.4874 N.am    1  UNL1       -0.3253
     34 O         139.9763  146.0715  157.1999 O.2     1  UNL1       -0.2703
     35 H         143.3845  146.0534  157.9304 H       1  UNL1        0.1453
     36 H         142.5575  147.0145  156.7902 H       1  UNL1        0.1453
@<TRIPOS>BOND
     1     1     2    1
     2     2     3   ar
     3     3     4   ar
     4     4     5   ar
     5     5     6   ar
     6     6     7    1
     7     7     8    1
     8     8     9    1
     9     9    10    1
    10    10    11    1
    11    11    12    1
    12    12    13    1
    13    13    14    1
    14    15    14    1
    15    15    16    1
    16    16    17    1
    17    17    18    1
    18    18    19   ar
    19    19    20   ar
    20    20    21   ar
    21    21    22   ar
    22    22    23   ar
    23    23    32    1
    24    32    33   am
    25    32    34    2
    26     4    24    1
    27    24    25    1
    28    25    26    1
    29    25    27    1
    30    25    28    1
    31    28    29    1
    32    29    30    2
    33     6     2   ar
    34    15    10    1
    35    23    18   ar
    36    29     3    1
    37    20     5    1
    38    17    31    1
    39    33    35    1
    40    33    36    1
@<TRIPOS>MOLECULE
*****
 36 40 0 0 0
SMALL
GASTEIGER

@<TRIPOS>ATOM
      1 C         140.3138  144.7702  164.4686 C.3     1  UNL1        0.0323
      2 C         140.8607  143.5284  163.8293 C.ar    1  UNL1       -0.0060
      3 C         141.3383  142.3026  164.5499 C.ar    1  UNL1        0.0438
      4 C         141.7989  141.3110  163.5230 C.ar    1  UNL1        0.0435
      5 N         141.6059  141.9239  162.1676 N.ar    1  UNL1       -0.3137
      6 C         141.0261  143.2943  162.3568 C.ar    1  UNL1        0.0372
      7 C         140.5167  144.5807  161.7775 C.3     1  UNL1        0.0452
      8 C         140.2142  145.4384  160.5846 C.3     1  UNL1        0.0235
      9 C         140.1997  145.6376  159.0979 C.3     1  UNL1        0.0725
     10 N         140.4770  145.1249  157.7158 N.3     1  UNL1       -0.2724
     11 C         139.9676  146.4113  157.1365 C.3     1  UNL1        0.0721
     12 C         139.9531  146.6104  155.6499 C.3     1  UNL1        0.0174
     13 C         140.4480  145.5232  154.7426 C.3     1  UNL1        0.0029
     14 C         140.9573  144.2369  155.3220 C.3     1  UNL1        0.0177
     15 C         140.9719  144.0377  156.8086 C.3     1  UNL1        0.0770
     16 C         141.5516  142.6673  156.6193 C.3     1  UNL1        0.1032
     17 N         142.0610  141.3809  157.1988 N.pl3   1  UNL1       -0.3314
     18 C         142.3635  140.5232  158.3916 C.ar    1  UNL1        0.0505
     19 C         142.3781  140.3240  159.8782 C.ar    1  UNL1        0.0319
     20 C         142.1008  140.8367  161.2603 C.ar    1  UNL1        0.0646
     21 C         142.6918  139.4290  161.1656 C.ar    1  UNL1        0.0177
     22 C         143.0915  138.6008  159.9805 C.ar    1  UNL1        0.0072
     23 C         142.9273  139.1479  158.5935 C.ar    1  UNL1        0.0663
     24 C         142.3345  139.9780  163.9548 C.3     1  UNL1        0.0446
     25 C         142.4095  139.6367  165.4135 C.3     1  UNL1        0.0128
     26 C         142.6768  138.8569  166.6666 C.3     1  UNL1        0.0008
     27 C         142.9629  138.3743  164.8218 C.3     1  UNL1        0.0008
     28 C         141.9490  140.6283  166.4404 C.3     1  UNL1        0.0695
     29 C         141.4134  141.9613  166.0086 C.2     1  UNL1        0.1739
     30 O         140.9529  142.9528  167.0356 O.2     1  UNL1       -0.2913
     31 H         142.3234  140.8373  156.4210 H       1  UNL1        0.1469
     32 C         143.3271  138.3197  157.4085 C.2     1  UNL1        0.2439
     33 N         142.9915  136.8583  157.3673 N.am    1  UNL1       -0.3253
     34 O         144.0623  138.9530  156.2646 O.2     1  UNL1       -0.2703
     35 H         142.5090  136.4428  158.1181 H       1  UNL1        0.1453
     36 H         143.2539  136.3147  156.5896 H       1  UNL1        0.1453
@<TRIPOS>BOND
     1     1     2    1
     2     2     3   ar
     3     3     4   ar
     4     4     5   ar
     5     5     6   ar
     6     6     7    1
     7     7     8    1
     8     8     9    1
     9     9    10    1
    10    10    11    1
    11    11    12    1
    12    12    13    1
    13    13    14    1
    14    15    14    1
    15    15    16    1
    16    16    17    1
    17    17    18    1
    18    18    19   ar
    19    19    20   ar
    20    20    21   ar
    21    21    22   ar
    22    22    23   ar
    23    23    32    1
    24    32    33   am
    25    32    34    2
    26     4    24    1
    27    24    25    1
    28    25    26    1
    29    25    27    1
    30    25    28    1
    31    28    29    1
    32    29    30    2
    33     6     2   ar
    34    15    10    1
    35    23    18   ar
    36    29     3    1
    37    20     5    1
    38    17    31    1
    39    33    35    1
    40    33    36    1
@<TRIPOS>MOLECULE
*****
 36 40 0 0 0
SMALL
GASTEIGER

@<TRIPOS>ATOM
      1 C         144.1000  138.0072  161.7168 C.3     1  UNL1        0.0323
      2 C         143.6177  139.3876  161.3821 C.ar    1  UNL1       -0.0060
      3 C         143.8223  140.6189  162.2139 C.ar    1  UNL1        0.0438
      4 C         143.1771  141.7712  161.5027 C.ar    1  UNL1        0.0435
      5 N         142.5738  141.2522  160.2313 N.ar    1  UNL1       -0.3137
      6 C         142.8460  139.7790  160.1568 C.ar    1  UNL1        0.0372
      7 C         142.7204  138.4696  159.4359 C.3     1  UNL1        0.0452
      8 C         142.2305  137.6748  158.2619 C.3     1  UNL1        0.0235
      9 C         141.5075  137.6077  156.9492 C.3     1  UNL1        0.0725
     10 N         140.7454  138.2861  155.8498 N.3     1  UNL1       -0.2724
     11 C         140.6197  136.9767  155.1289 C.3     1  UNL1        0.0721
     12 C         139.8968  136.9095  153.8164 C.3     1  UNL1        0.0174
     13 C         139.2996  138.1518  153.2247 C.3     1  UNL1        0.0029
     14 C         139.4252  139.4612  153.9455 C.3     1  UNL1        0.0177
     15 C         140.1481  139.5283  155.2581 C.3     1  UNL1        0.0770
     16 C         139.8759  141.0015  155.3327 C.3     1  UNL1        0.1032
     17 N         140.0015  142.3109  156.0536 N.pl3   1  UNL1       -0.3314
     18 C         140.4915  143.1057  157.2276 C.ar    1  UNL1        0.0505
     19 C         141.2143  143.1728  158.5402 C.ar    1  UNL1        0.0319
     20 C         141.9765  142.4944  159.6396 C.ar    1  UNL1        0.0646
     21 C         141.7470  143.9980  159.8020 C.ar    1  UNL1        0.0177
     22 C         141.0433  144.9922  158.9265 C.ar    1  UNL1        0.0072
     23 C         140.4155  144.5460  157.6393 C.ar    1  UNL1        0.0663
     24 C         143.2225  143.1444  162.1048 C.3     1  UNL1        0.0446
     25 C         143.9129  143.3652  163.4180 C.3     1  UNL1        0.0128
     26 C         144.4433  144.0714  164.6304 C.3     1  UNL1        0.0008
     27 C         143.4520  144.7628  163.1279 C.3     1  UNL1        0.0008
     28 C         144.5581  142.2128  164.1292 C.3     1  UNL1        0.0695
     29 C         144.5128  140.8396  163.5271 C.2     1  UNL1        0.1739
     30 O         145.1580  139.6873  164.2383 O.2     1  UNL1       -0.2913
     31 H         139.5397  142.9635  155.4790 H       1  UNL1        0.1469
     32 C         139.7118  145.5403  156.7639 C.2     1  UNL1        0.2439
     33 N         139.9750  147.0072  156.9334 N.am    1  UNL1       -0.3253
     34 O         138.7450  145.0675  155.7191 O.2     1  UNL1       -0.2703
     35 H         140.6096  147.3175  157.6192 H       1  UNL1        0.1453
     36 H         139.5132  147.6598  156.3589 H       1  UNL1        0.1453
@<TRIPOS>BOND
     1     1     2    1
     2     2     3   ar
     3     3     4   ar
     4     4     5   ar
     5     5     6   ar
     6     6     7    1
     7     7     8    1
     8     8     9    1
     9     9    10    1
    10    10    11    1
    11    11    12    1
    12    12    13    1
    13    13    14    1
    14    15    14    1
    15    15    16    1
    16    16    17    1
    17    17    18    1
    18    18    19   ar
    19    19    20   ar
    20    20    21   ar
    21    21    22   ar
    22    22    23   ar
    23    23    32    1
    24    32    33   am
    25    32    34    2
    26     4    24    1
    27    24    25    1
    28    25    26    1
    29    25    27    1
    30    25    28    1
    31    28    29    1
    32    29    30    2
    33     6     2   ar
    34    15    10    1
    35    23    18   ar
    36    29     3    1
    37    20     5    1
    38    17    31    1
    39    33    35    1
    40    33    36    1
