@<TRIPOS>MOLECULE
*****
 41 45 0 0 0
SMALL
GASTEIGER

@<TRIPOS>ATOM
      1 N         142.0113  143.8349  159.7845 N.3     1  UNL1       -0.1520
      2 C         141.7608  144.3172  161.1826 C.3     1  UNL1        0.1173
      3 C         142.6813  143.9071  162.2936 C.3     1  UNL1        0.1126
      4 N         143.8523  143.0148  162.0067 N.am    1  UNL1       -0.2766
      5 C         144.7729  142.6048  163.1177 C.2     1  UNL1        0.2256
      6 O         145.9439  141.7124  162.8308 O.2     1  UNL1       -0.2749
      7 C         144.1028  142.5325  160.6086 C.3     1  UNL1        0.1126
      8 C         143.1823  142.9425  159.4975 C.3     1  UNL1        0.1173
      9 S         141.0907  144.2449  158.6735 S.O2    1  UNL1        0.0634
     10 O         141.7576  145.5873  158.6164 O.2     1  UNL1       -0.1528
     11 O         140.4239  142.9025  158.7305 O.2     1  UNL1       -0.1528
     12 C         139.2622  146.4787  155.9501 C.ar    1  UNL1        0.0370
     13 C         138.3291  145.4750  155.3402 C.ar    1  UNL1        0.0070
     14 C         138.3165  144.0613  155.8415 C.ar    1  UNL1        0.0728
     15 C         139.2371  143.6513  156.9525 C.ar    1  UNL1        0.0238
     16 C         140.1702  144.6549  157.5624 C.ar    1  UNL1        0.1222
     17 C         140.1827  146.0686  157.0612 C.ar    1  UNL1        0.0229
     18 C         138.5311  151.6979  155.6241 C.3     1  UNL1        0.0736
     19 C         138.9387  150.2914  155.2990 C.ar    1  UNL1        0.1404
     20 N         139.6496  149.8444  154.0561 N.ar    1  UNL1       -0.1336
     21 N         139.8573  148.3618  154.1487 N.ar    1  UNL1       -0.1293
     22 C         139.2748  147.8924  155.4489 C.ar    1  UNL1        0.1629
     23 N         138.7071  149.0850  156.1598 N.ar    1  UNL1       -0.3246
     24 H         138.2608  149.0773  157.0373 H       1  UNL1        0.1686
     25 C         137.3834  143.0576  155.2316 C.3     1  UNL1        0.4186
     26 F         136.4504  142.0538  154.6218 F       1  UNL1       -0.1659
     27 F         138.2090  141.9431  155.8028 F       1  UNL1       -0.1659
     28 F         136.5578  144.1720  154.6605 F       1  UNL1       -0.1659
     29 C         144.5224  143.0871  164.5158 C.3     1  UNL1        0.0811
     30 C         144.8643  143.9999  165.6558 C.3     1  UNL1        0.0142
     31 C         143.7467  143.0096  165.7973 C.3     1  UNL1        0.0314
     32 C         142.6534  142.3931  166.6188 C.ar    1  UNL1       -0.0220
     33 C         142.9220  141.9801  168.0356 C.ar    1  UNL1       -0.0043
     34 C         141.8289  141.3636  168.8572 C.ar    1  UNL1        0.0035
     35 C         140.4671  141.1601  168.2619 C.ar    1  UNL1        0.0714
     36 C         140.1985  141.5732  166.8451 C.ar    1  UNL1        0.0035
     37 C         141.2917  142.1897  166.0236 C.ar    1  UNL1       -0.0043
     38 C         139.3740  140.5437  169.0835 C.3     1  UNL1        0.4186
     39 F         138.2808  139.9272  169.9050 F       1  UNL1       -0.1659
     40 F         139.5813  141.5863  170.1417 F       1  UNL1       -0.1659
     41 F         139.1666  139.5011  168.0252 F       1  UNL1       -0.1659
@<TRIPOS>BOND
     1    18    19    1
     2    19    20   ar
     3    20    21   ar
     4    21    22   ar
     5    22    12    1
     6    12    13   ar
     7    13    14   ar
     8    14    25    1
     9    25    26    1
    10    25    27    1
    11    25    28    1
    12    14    15   ar
    13    15    16   ar
    14    16     9    1
    15     9    10    2
    16     9    11    2
    17     9     1    1
    18     1     2    1
    19     2     3    1
    20     3     4    1
    21     4     5   am
    22     5     6    2
    23    29     5    1
    24    29    30    1
    25    30    31    1
    26    31    32    1
    27    32    33   ar
    28    33    34   ar
    29    34    35   ar
    30    35    38    1
    31    38    39    1
    32    38    40    1
    33    38    41    1
    34    35    36   ar
    35    36    37   ar
    36     4     7    1
    37     7     8    1
    38    16    17   ar
    39    22    23   ar
    40    23    19   ar
    41    17    12   ar
    42     8     1    1
    43    31    29    1
    44    37    32   ar
    45    23    24    1
@<TRIPOS>MOLECULE
*****
 41 45 0 0 0
SMALL
GASTEIGER

@<TRIPOS>ATOM
      1 N         138.6319  140.2185  159.7392 N.3     1  UNL1       -0.1520
      2 C         137.9806  140.4407  161.0720 C.3     1  UNL1        0.1173
      3 C         138.4260  139.6490  162.2657 C.3     1  UNL1        0.1126
      4 N         139.5225  138.6350  162.1265 N.am    1  UNL1       -0.2766
      5 C         139.9679  137.8433  163.3202 C.2     1  UNL1        0.2256
      6 O         141.0644  136.8294  163.1810 O.2     1  UNL1       -0.2749
      7 C         140.1738  138.4128  160.7937 C.3     1  UNL1        0.1126
      8 C         139.7284  139.2046  159.6001 C.3     1  UNL1        0.1173
      9 S         138.1865  141.0102  158.5456 S.O2    1  UNL1        0.0634
     10 O         138.1475  139.7540  157.7269 O.2     1  UNL1       -0.1528
     11 O         138.2256  142.2665  159.3643 O.2     1  UNL1       -0.1528
     12 C         138.0427  143.8315  155.7581 C.ar    1  UNL1        0.0370
     13 C         136.8505  143.3855  154.9646 C.ar    1  UNL1        0.0070
     14 C         136.1037  142.1477  155.3647 C.ar    1  UNL1        0.0728
     15 C         136.5491  141.3559  156.5583 C.ar    1  UNL1        0.0238
     16 C         137.7412  141.8020  157.3519 C.ar    1  UNL1        0.1222
     17 C         138.4880  143.0398  156.9518 C.ar    1  UNL1        0.0229
     18 C         139.2404  148.8831  154.7949 C.3     1  UNL1        0.0736
     19 C         139.3401  147.3913  154.9153 C.ar    1  UNL1        0.1404
     20 N         140.5377  146.5569  154.5695 N.ar    1  UNL1       -0.1336
     21 N         140.1975  145.1219  154.8431 N.ar    1  UNL1       -0.1293
     22 C         138.7896  145.0693  155.3580 C.ar    1  UNL1        0.1629
     23 N         138.2597  146.4719  155.4026 N.ar    1  UNL1       -0.3246
     24 H         137.3607  146.7417  155.6996 H       1  UNL1        0.1686
     25 C         134.9115  141.7016  154.5711 C.3     1  UNL1        0.4186
     26 F         133.7194  141.2555  153.7776 F       1  UNL1       -0.1659
     27 F         134.3989  140.9501  155.7637 F       1  UNL1       -0.1659
     28 F         135.4241  142.4531  153.3784 F       1  UNL1       -0.1659
     29 C         139.3166  138.0655  164.6530 C.3     1  UNL1        0.0811
     30 C         138.2905  137.6818  165.6775 C.3     1  UNL1        0.0142
     31 C         139.2149  138.8342  165.9371 C.3     1  UNL1        0.0314
     32 C         139.6899  139.9433  166.8283 C.ar    1  UNL1       -0.0220
     33 C         139.4039  139.8974  168.3001 C.ar    1  UNL1       -0.0043
     34 C         139.8789  141.0065  169.1914 C.ar    1  UNL1        0.0035
     35 C         140.6398  142.1616  168.6108 C.ar    1  UNL1        0.0714
     36 C         140.9257  142.2075  167.1390 C.ar    1  UNL1        0.0035
     37 C         140.4507  141.0983  166.2478 C.ar    1  UNL1       -0.0043
     38 C         141.1147  143.2706  169.5021 C.3     1  UNL1        0.4186
     39 F         141.5896  144.3797  170.3933 F       1  UNL1       -0.1659
     40 F         142.2680  142.4203  169.9457 F       1  UNL1       -0.1659
     41 F         139.9614  144.1210  169.0584 F       1  UNL1       -0.1659
@<TRIPOS>BOND
     1    18    19    1
     2    19    20   ar
     3    20    21   ar
     4    21    22   ar
     5    22    12    1
     6    12    13   ar
     7    13    14   ar
     8    14    25    1
     9    25    26    1
    10    25    27    1
    11    25    28    1
    12    14    15   ar
    13    15    16   ar
    14    16     9    1
    15     9    10    2
    16     9    11    2
    17     9     1    1
    18     1     2    1
    19     2     3    1
    20     3     4    1
    21     4     5   am
    22     5     6    2
    23    29     5    1
    24    29    30    1
    25    30    31    1
    26    31    32    1
    27    32    33   ar
    28    33    34   ar
    29    34    35   ar
    30    35    38    1
    31    38    39    1
    32    38    40    1
    33    38    41    1
    34    35    36   ar
    35    36    37   ar
    36     4     7    1
    37     7     8    1
    38    16    17   ar
    39    22    23   ar
    40    23    19   ar
    41    17    12   ar
    42     8     1    1
    43    31    29    1
    44    37    32   ar
    45    23    24    1
@<TRIPOS>MOLECULE
*****
 41 45 0 0 0
SMALL
GASTEIGER

@<TRIPOS>ATOM
      1 N         141.9476  143.8970  159.7207 N.3     1  UNL1       -0.1520
      2 C         141.7074  144.3592  161.1274 C.3     1  UNL1        0.1173
      3 C         142.6310  143.9261  162.2271 C.3     1  UNL1        0.1126
      4 N         143.7947  143.0308  161.9203 N.am    1  UNL1       -0.2766
      5 C         144.7182  142.5978  163.0201 C.2     1  UNL1        0.2256
      6 O         145.8819  141.7025  162.7132 O.2     1  UNL1       -0.2749
      7 C         144.0348  142.5686  160.5137 C.3     1  UNL1        0.1126
      8 C         143.1113  143.0017  159.4139 C.3     1  UNL1        0.1173
      9 S         141.0240  144.3300  158.6210 S.O2    1  UNL1        0.0634
     10 O         142.2041  144.5885  157.7318 O.2     1  UNL1       -0.1528
     11 O         139.8440  144.0716  159.5102 O.2     1  UNL1       -0.1528
     12 C         138.2279  144.2103  155.8072 C.ar    1  UNL1        0.0370
     13 C         138.2534  145.6293  155.3216 C.ar    1  UNL1        0.0070
     14 C         139.2024  146.6151  155.9358 C.ar    1  UNL1        0.0728
     15 C         140.1260  146.1821  157.0356 C.ar    1  UNL1        0.0238
     16 C         140.1005  144.7631  157.5212 C.ar    1  UNL1        0.1222
     17 C         139.1514  143.7772  156.9070 C.ar    1  UNL1        0.0229
     18 C         134.0593  141.0618  155.0381 C.3     1  UNL1        0.0736
     19 C         135.3627  141.7771  154.8395 C.ar    1  UNL1        0.1404
     20 N         136.2740  141.6370  153.6563 N.ar    1  UNL1       -0.1336
     21 N         137.4582  142.5314  153.8748 N.ar    1  UNL1       -0.1293
     22 C         137.2788  143.2243  155.1931 C.ar    1  UNL1        0.1629
     23 N         135.9837  142.7581  155.7893 N.ar    1  UNL1       -0.3246
     24 H         135.6074  143.0455  156.6524 H       1  UNL1        0.1686
     25 C         139.2279  148.0342  155.4502 C.3     1  UNL1        0.4186
     26 F         139.2535  149.4532  154.9646 F       1  UNL1       -0.1659
     27 F         139.8660  147.5844  154.1694 F       1  UNL1       -0.1659
     28 F         138.5899  148.4840  156.7310 F       1  UNL1       -0.1659
     29 C         144.4781  143.0600  164.4267 C.3     1  UNL1        0.0811
     30 C         144.8344  143.9500  165.5803 C.3     1  UNL1        0.0142
     31 C         143.7057  142.9705  165.7094 C.3     1  UNL1        0.0314
     32 C         142.6082  142.3533  166.5247 C.ar    1  UNL1       -0.0220
     33 C         141.3007  142.0023  165.8786 C.ar    1  UNL1       -0.0043
     34 C         140.2032  141.3852  166.6938 C.ar    1  UNL1        0.0035
     35 C         140.4131  141.1190  168.1550 C.ar    1  UNL1        0.0714
     36 C         141.7205  141.4700  168.8011 C.ar    1  UNL1        0.0035
     37 C         142.8181  142.0872  167.9858 C.ar    1  UNL1       -0.0043
     38 C         139.3155  140.5019  168.9702 C.3     1  UNL1        0.4186
     39 F         138.2180  139.8847  169.7853 F       1  UNL1       -0.1659
     40 F         139.4933  141.5644  170.0139 F       1  UNL1       -0.1659
     41 F         139.1378  139.4393  167.9264 F       1  UNL1       -0.1659
@<TRIPOS>BOND
     1    18    19    1
     2    19    20   ar
     3    20    21   ar
     4    21    22   ar
     5    22    12    1
     6    12    13   ar
     7    13    14   ar
     8    14    25    1
     9    25    26    1
    10    25    27    1
    11    25    28    1
    12    14    15   ar
    13    15    16   ar
    14    16     9    1
    15     9    10    2
    16     9    11    2
    17     9     1    1
    18     1     2    1
    19     2     3    1
    20     3     4    1
    21     4     5   am
    22     5     6    2
    23    29     5    1
    24    29    30    1
    25    30    31    1
    26    31    32    1
    27    32    33   ar
    28    33    34   ar
    29    34    35   ar
    30    35    38    1
    31    38    39    1
    32    38    40    1
    33    38    41    1
    34    35    36   ar
    35    36    37   ar
    36     4     7    1
    37     7     8    1
    38    16    17   ar
    39    22    23   ar
    40    23    19   ar
    41    17    12   ar
    42     8     1    1
    43    31    29    1
    44    37    32   ar
    45    23    24    1
@<TRIPOS>MOLECULE
*****
 41 45 0 0 0
SMALL
GASTEIGER

@<TRIPOS>ATOM
      1 N         140.7552  138.9643  159.8901 N.3     1  UNL1       -0.1520
      2 C         140.9854  138.4191  161.2684 C.3     1  UNL1        0.1173
      3 C         140.1177  138.8673  162.4069 C.3     1  UNL1        0.1126
      4 N         139.0197  139.8607  162.1671 N.am    1  UNL1       -0.2766
      5 C         138.1519  140.3088  163.3056 C.2     1  UNL1        0.2256
      6 O         137.0539  141.3022  163.0658 O.2     1  UNL1       -0.2749
      7 C         138.7894  140.4059  160.7888 C.3     1  UNL1        0.1126
      8 C         139.6572  139.9577  159.6503 C.3     1  UNL1        0.1173
      9 S         141.6229  138.5162  158.7516 S.O2    1  UNL1        0.0634
     10 O         142.6907  138.1121  159.7245 O.2     1  UNL1       -0.1528
     11 O         140.5552  138.9203  157.7787 O.2     1  UNL1       -0.1528
     12 C         143.4670  136.1609  156.1436 C.ar    1  UNL1        0.0370
     13 C         144.2262  137.1717  155.3361 C.ar    1  UNL1        0.0070
     14 C         144.1176  138.6306  155.6672 C.ar    1  UNL1        0.0728
     15 C         143.2498  139.0788  156.8057 C.ar    1  UNL1        0.0238
     16 C         142.4907  138.0680  157.6131 C.ar    1  UNL1        0.1222
     17 C         142.5993  136.6091  157.2821 C.ar    1  UNL1        0.0229
     18 C         144.9553  131.0951  156.2033 C.3     1  UNL1        0.0736
     19 C         144.2597  132.3734  155.8400 C.ar    1  UNL1        0.1404
     20 N         143.2257  132.5401  154.7661 N.ar    1  UNL1       -0.1336
     21 N         142.8029  133.9792  154.7492 N.ar    1  UNL1       -0.1293
     22 C         143.5756  134.7019  155.8125 C.ar    1  UNL1        0.1629
     23 N         144.4759  133.7095  156.4867 N.ar    1  UNL1       -0.3246
     24 H         145.0993  133.9013  157.2241 H       1  UNL1        0.1686
     25 C         144.8767  139.6415  154.8598 C.3     1  UNL1        0.4186
     26 F         145.6359  140.6523  154.0524 F       1  UNL1       -0.1659
     27 F         145.7286  139.9554  156.0538 F       1  UNL1       -0.1659
     28 F         144.0249  139.3276  153.6658 F       1  UNL1       -0.1659
     29 C         138.3822  139.7636  164.6838 C.3     1  UNL1        0.0811
     30 C         138.1566  138.6958  165.7129 C.3     1  UNL1        0.0142
     31 C         139.0066  139.8870  166.0421 C.3     1  UNL1        0.0314
     32 C         139.8579  140.6461  167.0164 C.ar    1  UNL1       -0.0220
     33 C         139.8457  140.2759  168.4700 C.ar    1  UNL1       -0.0043
     34 C         140.6970  141.0349  169.4443 C.ar    1  UNL1        0.0035
     35 C         141.5604  142.1640  168.9651 C.ar    1  UNL1        0.0714
     36 C         141.5725  142.5342  167.5115 C.ar    1  UNL1        0.0035
     37 C         140.7212  141.7751  166.5372 C.ar    1  UNL1       -0.0043
     38 C         142.4116  142.9230  169.9394 C.3     1  UNL1        0.4186
     39 F         143.2629  143.6820  170.9137 F       1  UNL1       -0.1659
     40 F         141.3769  144.0073  169.9988 F       1  UNL1       -0.1659
     41 F         143.4463  141.8387  169.8800 F       1  UNL1       -0.1659
@<TRIPOS>BOND
     1    18    19    1
     2    19    20   ar
     3    20    21   ar
     4    21    22   ar
     5    22    12    1
     6    12    13   ar
     7    13    14   ar
     8    14    25    1
     9    25    26    1
    10    25    27    1
    11    25    28    1
    12    14    15   ar
    13    15    16   ar
    14    16     9    1
    15     9    10    2
    16     9    11    2
    17     9     1    1
    18     1     2    1
    19     2     3    1
    20     3     4    1
    21     4     5   am
    22     5     6    2
    23    29     5    1
    24    29    30    1
    25    30    31    1
    26    31    32    1
    27    32    33   ar
    28    33    34   ar
    29    34    35   ar
    30    35    38    1
    31    38    39    1
    32    38    40    1
    33    38    41    1
    34    35    36   ar
    35    36    37   ar
    36     4     7    1
    37     7     8    1
    38    16    17   ar
    39    22    23   ar
    40    23    19   ar
    41    17    12   ar
    42     8     1    1
    43    31    29    1
    44    37    32   ar
    45    23    24    1
@<TRIPOS>MOLECULE
*****
 41 45 0 0 0
SMALL
GASTEIGER

@<TRIPOS>ATOM
      1 N         140.8406  138.9144  159.8969 N.3     1  UNL1       -0.1520
      2 C         141.0760  138.3807  161.2788 C.3     1  UNL1        0.1173
      3 C         140.1869  138.8074  162.4091 C.3     1  UNL1        0.1126
      4 N         139.0625  139.7677  162.1575 N.am    1  UNL1       -0.2766
      5 C         138.1735  140.1943  163.2878 C.2     1  UNL1        0.2256
      6 O         137.0490  141.1547  163.0362 O.2     1  UNL1       -0.2749
      7 C         138.8271  140.3014  160.7756 C.3     1  UNL1        0.1126
      8 C         139.7161  139.8747  159.6453 C.3     1  UNL1        0.1173
      9 S         141.7296  138.4877  158.7666 S.O2    1  UNL1        0.0634
     10 O         140.5242  138.0800  157.9724 O.2     1  UNL1       -0.1528
     11 O         142.9350  138.8954  159.5608 O.2     1  UNL1       -0.1528
     12 C         144.3590  138.6465  155.7982 C.ar    1  UNL1        0.0370
     13 C         144.3967  137.2078  155.3757 C.ar    1  UNL1        0.0070
     14 C         143.5454  136.1957  156.0834 C.ar    1  UNL1        0.0728
     15 C         142.6564  136.6224  157.2137 C.ar    1  UNL1        0.0238
     16 C         142.6186  138.0611  157.6363 C.ar    1  UNL1        0.1222
     17 C         143.4699  139.0732  156.9285 C.ar    1  UNL1        0.0229
     18 C         147.8624  142.4829  154.8553 C.3     1  UNL1        0.0736
     19 C         146.8206  141.4221  154.6571 C.ar    1  UNL1        0.1404
     20 N         146.2200  141.0103  153.3456 N.ar    1  UNL1       -0.1336
     21 N         145.2247  139.9205  153.6136 N.ar    1  UNL1       -0.1293
     22 C         145.2103  139.6587  155.0905 C.ar    1  UNL1        0.1629
     23 N         146.1966  140.5867  155.7354 N.ar    1  UNL1       -0.3246
     24 H         146.3989  140.6385  156.6975 H       1  UNL1        0.1686
     25 C         143.5831  134.7569  155.6609 C.3     1  UNL1        0.4186
     26 F         143.6208  133.3182  155.2383 F       1  UNL1       -0.1659
     27 F         143.0555  135.1399  154.3100 F       1  UNL1       -0.1659
     28 F         144.1107  134.3740  157.0118 F       1  UNL1       -0.1659
     29 C         138.4089  139.6607  164.6697 C.3     1  UNL1        0.0811
     30 C         138.1976  138.5953  165.7043 C.3     1  UNL1        0.0142
     31 C         139.0279  139.8017  166.0287 C.3     1  UNL1        0.0314
     32 C         139.8647  140.5796  167.0007 C.ar    1  UNL1       -0.0220
     33 C         140.6607  141.7599  166.5282 C.ar    1  UNL1       -0.0043
     34 C         141.4975  142.5378  167.5001 C.ar    1  UNL1        0.0035
     35 C         141.5383  142.1354  168.9446 C.ar    1  UNL1        0.0714
     36 C         140.7422  140.9551  169.4171 C.ar    1  UNL1        0.0035
     37 C         139.9054  140.1772  168.4451 C.ar    1  UNL1       -0.0043
     38 C         142.3750  142.9133  169.9165 C.3     1  UNL1        0.4186
     39 F         143.2118  143.6912  170.8884 F       1  UNL1       -0.1659
     40 F         143.4194  141.8373  169.8786 F       1  UNL1       -0.1659
     41 F         141.3307  143.9893  169.9544 F       1  UNL1       -0.1659
@<TRIPOS>BOND
     1    18    19    1
     2    19    20   ar
     3    20    21   ar
     4    21    22   ar
     5    22    12    1
     6    12    13   ar
     7    13    14   ar
     8    14    25    1
     9    25    26    1
    10    25    27    1
    11    25    28    1
    12    14    15   ar
    13    15    16   ar
    14    16     9    1
    15     9    10    2
    16     9    11    2
    17     9     1    1
    18     1     2    1
    19     2     3    1
    20     3     4    1
    21     4     5   am
    22     5     6    2
    23    29     5    1
    24    29    30    1
    25    30    31    1
    26    31    32    1
    27    32    33   ar
    28    33    34   ar
    29    34    35   ar
    30    35    38    1
    31    38    39    1
    32    38    40    1
    33    38    41    1
    34    35    36   ar
    35    36    37   ar
    36     4     7    1
    37     7     8    1
    38    16    17   ar
    39    22    23   ar
    40    23    19   ar
    41    17    12   ar
    42     8     1    1
    43    31    29    1
    44    37    32   ar
    45    23    24    1
@<TRIPOS>MOLECULE
*****
 41 45 0 0 0
SMALL
GASTEIGER

@<TRIPOS>ATOM
      1 N         140.5740  142.5857  161.6246 N.3     1  UNL1       -0.1520
      2 C         139.4198  143.0980  160.8151 C.3     1  UNL1        0.1173
      3 C         139.6552  143.6559  159.4428 C.3     1  UNL1        0.1126
      4 N         141.0448  143.7014  158.8799 N.am    1  UNL1       -0.2766
      5 C         141.2803  144.2593  157.5076 C.2     1  UNL1        0.2256
      6 O         142.6699  144.3049  156.9447 O.2     1  UNL1       -0.2749
      7 C         142.1990  143.1891  159.6894 C.3     1  UNL1        0.1126
      8 C         141.9636  142.6313  161.0618 C.3     1  UNL1        0.1173
      9 S         140.3385  142.0279  162.9970 S.O2    1  UNL1        0.0634
     10 O         139.4463  140.9720  162.4147 O.2     1  UNL1       -0.1528
     11 O         141.2307  143.0837  163.5793 O.2     1  UNL1       -0.1528
     12 C         140.3378  141.6676  166.9492 C.ar    1  UNL1        0.0370
     13 C         139.6322  140.3543  167.1140 C.ar    1  UNL1        0.0070
     14 C         139.1621  139.5988  165.9065 C.ar    1  UNL1        0.0728
     15 C         139.3975  140.1567  164.5342 C.ar    1  UNL1        0.0238
     16 C         140.1031  141.4700  164.3693 C.ar    1  UNL1        0.1222
     17 C         140.5732  142.2255  165.5769 C.ar    1  UNL1        0.0229
     18 C         143.3265  143.3853  170.9490 C.3     1  UNL1        0.0736
     19 C         142.1817  143.2127  169.9952 C.ar    1  UNL1        0.1404
     20 N         140.8811  143.9591  170.0347 N.ar    1  UNL1       -0.1336
     21 N         140.0321  143.4711  168.8984 N.ar    1  UNL1       -0.1293
     22 C         140.8079  142.4232  168.1568 C.ar    1  UNL1        0.1629
     23 N         142.1365  142.2635  168.8346 N.ar    1  UNL1       -0.3246
     24 H         142.8529  141.6445  168.5651 H       1  UNL1        0.1686
     25 C         138.4564  138.2854  166.0713 C.3     1  UNL1        0.4186
     26 F         137.7508  136.9720  166.2361 F       1  UNL1       -0.1659
     27 F         137.4230  138.9487  166.9327 F       1  UNL1       -0.1659
     28 F         139.4899  137.6220  165.2100 F       1  UNL1       -0.1659
     29 C         140.1261  144.7716  156.6980 C.3     1  UNL1        0.0811
     30 C         138.8730  144.5143  155.9148 C.3     1  UNL1        0.0142
     31 C         139.3801  145.9164  156.0792 C.3     1  UNL1        0.0314
     32 C         139.2421  147.3868  155.8168 C.ar    1  UNL1       -0.0220
     33 C         139.7254  147.9659  154.5202 C.ar    1  UNL1       -0.0043
     34 C         139.5874  149.4363  154.2578 C.ar    1  UNL1        0.0035
     35 C         138.9661  150.3277  155.2920 C.ar    1  UNL1        0.0714
     36 C         138.4828  149.7486  156.5886 C.ar    1  UNL1        0.0035
     37 C         138.6208  148.2781  156.8509 C.ar    1  UNL1       -0.0043
     38 C         138.8281  151.7980  155.0296 C.3     1  UNL1        0.4186
     39 F         138.6901  153.2684  154.7671 F       1  UNL1       -0.1659
     40 F         138.7730  151.5297  153.5548 F       1  UNL1       -0.1659
     41 F         138.8832  152.0664  156.5043 F       1  UNL1       -0.1659
@<TRIPOS>BOND
     1    18    19    1
     2    19    20   ar
     3    20    21   ar
     4    21    22   ar
     5    22    12    1
     6    12    13   ar
     7    13    14   ar
     8    14    25    1
     9    25    26    1
    10    25    27    1
    11    25    28    1
    12    14    15   ar
    13    15    16   ar
    14    16     9    1
    15     9    10    2
    16     9    11    2
    17     9     1    1
    18     1     2    1
    19     2     3    1
    20     3     4    1
    21     4     5   am
    22     5     6    2
    23    29     5    1
    24    29    30    1
    25    30    31    1
    26    31    32    1
    27    32    33   ar
    28    33    34   ar
    29    34    35   ar
    30    35    38    1
    31    38    39    1
    32    38    40    1
    33    38    41    1
    34    35    36   ar
    35    36    37   ar
    36     4     7    1
    37     7     8    1
    38    16    17   ar
    39    22    23   ar
    40    23    19   ar
    41    17    12   ar
    42     8     1    1
    43    31    29    1
    44    37    32   ar
    45    23    24    1
@<TRIPOS>MOLECULE
*****
 41 45 0 0 0
SMALL
GASTEIGER

@<TRIPOS>ATOM
      1 N         143.7918  142.1177  159.8723 N.3     1  UNL1       -0.1520
      2 C         142.3755  142.0395  160.3601 C.3     1  UNL1        0.1173
      3 C         141.9958  142.6733  161.6655 C.3     1  UNL1        0.1126
      4 N         143.0323  143.3851  162.4832 N.am    1  UNL1       -0.2766
      5 C         142.6526  144.0189  163.7887 C.2     1  UNL1        0.2256
      6 O         143.6892  144.7307  164.6063 O.2     1  UNL1       -0.2749
      7 C         144.4486  143.4633  161.9955 C.3     1  UNL1        0.1126
      8 C         144.8283  142.8295  160.6900 C.3     1  UNL1        0.1173
      9 S         144.1715  141.4839  158.5669 S.O2    1  UNL1        0.0634
     10 O         143.9606  140.1247  159.1653 O.2     1  UNL1       -0.1528
     11 O         144.3823  142.8431  157.9684 O.2     1  UNL1       -0.1528
     12 C         144.3736  138.8746  155.5835 C.ar    1  UNL1        0.0370
     13 C         145.3106  139.5827  154.6505 C.ar    1  UNL1        0.0070
     14 C         145.8678  140.9246  155.0229 C.ar    1  UNL1        0.0728
     15 C         145.4881  141.5583  156.3284 C.ar    1  UNL1        0.0238
     16 C         144.5512  140.8502  157.2614 C.ar    1  UNL1        0.1222
     17 C         143.9939  139.5083  156.8890 C.ar    1  UNL1        0.0229
     18 C         141.6845  135.0657  153.1051 C.3     1  UNL1        0.0736
     19 C         142.5802  135.7819  154.0719 C.ar    1  UNL1        0.1404
     20 N         143.3371  135.1533  155.2043 N.ar    1  UNL1       -0.1336
     21 N         144.1010  136.2353  155.9083 N.ar    1  UNL1       -0.1293
     22 C         143.8163  137.5326  155.2111 C.ar    1  UNL1        0.1629
     23 N         142.8764  137.2523  154.0762 N.ar    1  UNL1       -0.3246
     24 H         142.5169  137.9168  153.4449 H       1  UNL1        0.1686
     25 C         146.8049  141.6328  154.0899 C.3     1  UNL1        0.4186
     26 F         147.7418  142.3410  153.1569 F       1  UNL1       -0.1659
     27 F         145.7210  141.7040  153.0555 F       1  UNL1       -0.1659
     28 F         147.8888  141.5615  155.1243 F       1  UNL1       -0.1659
     29 C         141.2363  143.9408  164.2764 C.3     1  UNL1        0.0811
     30 C         139.9248  144.6069  164.5695 C.3     1  UNL1        0.0142
     31 C         140.0948  143.1392  164.8282 C.3     1  UNL1        0.0314
     32 C         139.5339  141.8291  165.2961 C.ar    1  UNL1       -0.0220
     33 C         138.5695  141.0740  164.4302 C.ar    1  UNL1       -0.0043
     34 C         138.0086  139.7639  164.8980 C.ar    1  UNL1        0.0035
     35 C         138.4120  139.2088  166.2319 C.ar    1  UNL1        0.0714
     36 C         139.3764  139.9639  167.0979 C.ar    1  UNL1        0.0035
     37 C         139.9373  141.2740  166.6299 C.ar    1  UNL1       -0.0043
     38 C         137.8511  137.8987  166.6998 C.3     1  UNL1        0.4186
     39 F         137.2902  136.5886  167.1677 F       1  UNL1       -0.1659
     40 F         138.5113  137.2040  165.5459 F       1  UNL1       -0.1659
     41 F         137.1909  138.5934  167.8537 F       1  UNL1       -0.1659
@<TRIPOS>BOND
     1    18    19    1
     2    19    20   ar
     3    20    21   ar
     4    21    22   ar
     5    22    12    1
     6    12    13   ar
     7    13    14   ar
     8    14    25    1
     9    25    26    1
    10    25    27    1
    11    25    28    1
    12    14    15   ar
    13    15    16   ar
    14    16     9    1
    15     9    10    2
    16     9    11    2
    17     9     1    1
    18     1     2    1
    19     2     3    1
    20     3     4    1
    21     4     5   am
    22     5     6    2
    23    29     5    1
    24    29    30    1
    25    30    31    1
    26    31    32    1
    27    32    33   ar
    28    33    34   ar
    29    34    35   ar
    30    35    38    1
    31    38    39    1
    32    38    40    1
    33    38    41    1
    34    35    36   ar
    35    36    37   ar
    36     4     7    1
    37     7     8    1
    38    16    17   ar
    39    22    23   ar
    40    23    19   ar
    41    17    12   ar
    42     8     1    1
    43    31    29    1
    44    37    32   ar
    45    23    24    1
@<TRIPOS>MOLECULE
*****
 41 45 0 0 0
SMALL
GASTEIGER

@<TRIPOS>ATOM
      1 N         141.6199  139.4956  162.2388 N.3     1  UNL1       -0.1520
      2 C         140.8692  138.6560  161.2481 C.3     1  UNL1        0.1173
      3 C         141.3678  138.5332  159.8387 C.3     1  UNL1        0.1126
      4 N         142.6171  139.2500  159.4200 N.am    1  UNL1       -0.2766
      5 C         143.1157  139.1272  158.0107 C.2     1  UNL1        0.2256
      6 O         144.3651  139.8439  157.5920 O.2     1  UNL1       -0.2749
      7 C         143.3679  140.0896  160.4107 C.3     1  UNL1        0.1126
      8 C         142.8693  140.2124  161.8201 C.3     1  UNL1        0.1173
      9 S         141.1213  139.6184  163.6481 S.O2    1  UNL1        0.0634
     10 O         139.9054  138.8173  163.2878 O.2     1  UNL1       -0.1528
     11 O         142.3373  140.4194  164.0085 O.2     1  UNL1       -0.1528
     12 C         140.8631  140.7205  167.4519 C.ar    1  UNL1        0.0370
     13 C         139.6255  139.9868  167.8762 C.ar    1  UNL1        0.0070
     14 C         138.8866  139.1303  166.8912 C.ar    1  UNL1        0.0728
     15 C         139.3852  139.0075  165.4818 C.ar    1  UNL1        0.0238
     16 C         140.6227  139.7412  165.0575 C.ar    1  UNL1        0.1222
     17 C         141.3617  140.5977  166.0425 C.ar    1  UNL1        0.0229
     18 C         144.7482  142.9269  170.2659 C.3     1  UNL1        0.0736
     19 C         143.3879  142.5912  169.7304 C.ar    1  UNL1        0.1404
     20 N         142.0906  143.1991  170.1751 N.ar    1  UNL1       -0.1336
     21 N         140.9870  142.5723  169.3756 N.ar    1  UNL1       -0.1293
     22 C         141.6021  141.5770  168.4369 C.ar    1  UNL1        0.1629
     23 N         143.0859  141.5887  168.6562 N.ar    1  UNL1       -0.3246
     24 H         143.7458  141.0356  168.1789 H       1  UNL1        0.1686
     25 C         137.6490  138.3965  167.3155 C.3     1  UNL1        0.4186
     26 F         136.4114  137.6629  167.7399 F       1  UNL1       -0.1659
     27 F         137.6106  139.1952  168.5846 F       1  UNL1       -0.1659
     28 F         137.6873  137.5979  166.0464 F       1  UNL1       -0.1659
     29 C         142.3650  138.2876  157.0200 C.3     1  UNL1        0.0811
     30 C         141.3264  138.1641  155.9449 C.3     1  UNL1        0.0142
     31 C         142.1033  136.9568  156.3793 C.3     1  UNL1        0.0314
     32 C         142.4009  135.4914  156.2601 C.ar    1  UNL1       -0.0220
     33 C         141.5275  134.6153  155.4117 C.ar    1  UNL1       -0.0043
     34 C         141.8250  133.1500  155.2925 C.ar    1  UNL1        0.0035
     35 C         142.9958  132.5606  156.0218 C.ar    1  UNL1        0.0714
     36 C         143.8691  133.4366  156.8703 C.ar    1  UNL1        0.0035
     37 C         143.5716  134.9020  156.9894 C.ar    1  UNL1       -0.0043
     38 C         143.2933  131.0953  155.9027 C.3     1  UNL1        0.4186
     39 F         143.5907  129.6299  155.7835 F       1  UNL1       -0.1659
     40 F         143.8683  131.3231  154.5362 F       1  UNL1       -0.1659
     41 F         142.7183  130.8674  157.2692 F       1  UNL1       -0.1659
@<TRIPOS>BOND
     1    18    19    1
     2    19    20   ar
     3    20    21   ar
     4    21    22   ar
     5    22    12    1
     6    12    13   ar
     7    13    14   ar
     8    14    25    1
     9    25    26    1
    10    25    27    1
    11    25    28    1
    12    14    15   ar
    13    15    16   ar
    14    16     9    1
    15     9    10    2
    16     9    11    2
    17     9     1    1
    18     1     2    1
    19     2     3    1
    20     3     4    1
    21     4     5   am
    22     5     6    2
    23    29     5    1
    24    29    30    1
    25    30    31    1
    26    31    32    1
    27    32    33   ar
    28    33    34   ar
    29    34    35   ar
    30    35    38    1
    31    38    39    1
    32    38    40    1
    33    38    41    1
    34    35    36   ar
    35    36    37   ar
    36     4     7    1
    37     7     8    1
    38    16    17   ar
    39    22    23   ar
    40    23    19   ar
    41    17    12   ar
    42     8     1    1
    43    31    29    1
    44    37    32   ar
    45    23    24    1
@<TRIPOS>MOLECULE
*****
 41 45 0 0 0
SMALL
GASTEIGER

@<TRIPOS>ATOM
      1 N         143.1448  138.8508  158.7865 N.3     1  UNL1       -0.1520
      2 C         143.5088  138.5081  160.2007 C.3     1  UNL1        0.1173
      3 C         143.8813  139.5959  161.1640 C.3     1  UNL1        0.1126
      4 N         143.8900  141.0264  160.7130 N.am    1  UNL1       -0.2766
      5 C         144.2625  142.1142  161.6763 C.2     1  UNL1        0.2256
      6 O         144.2712  143.5448  161.2254 O.2     1  UNL1       -0.2749
      7 C         143.5260  141.3692  159.2989 C.3     1  UNL1        0.1126
      8 C         143.1534  140.2814  158.3356 C.3     1  UNL1        0.1173
      9 S         142.7722  137.7630  157.8232 S.O2    1  UNL1        0.0634
     10 O         143.1433  136.7303  158.8459 O.2     1  UNL1       -0.1528
     11 O         142.4011  138.7957  156.8006 O.2     1  UNL1       -0.1528
     12 C         142.6006  134.2113  156.0611 C.ar    1  UNL1        0.0370
     13 C         141.6545  134.4997  154.9334 C.ar    1  UNL1        0.0070
     14 C         141.0810  135.8759  154.7690 C.ar    1  UNL1        0.0728
     15 C         141.4536  136.9637  155.7323 C.ar    1  UNL1        0.0238
     16 C         142.3997  136.6753  156.8600 C.ar    1  UNL1        0.1222
     17 C         142.9732  135.2990  157.0243 C.ar    1  UNL1        0.0229
     18 C         144.2191  129.6695  158.2137 C.3     1  UNL1        0.0736
     19 C         143.9181  130.7474  157.2149 C.ar    1  UNL1        0.1404
     20 N         144.1955  130.6870  155.7420 N.ar    1  UNL1       -0.1336
     21 N         143.7357  131.9772  155.1305 N.ar    1  UNL1       -0.1293
     22 C         143.1742  132.8350  156.2255 C.ar    1  UNL1        0.1629
     23 N         143.2869  132.0749  157.5137 N.ar    1  UNL1       -0.3246
     24 H         142.9975  132.3917  158.3998 H       1  UNL1        0.1686
     25 C         140.1348  136.1644  153.6413 C.3     1  UNL1        0.4186
     26 F         139.1887  136.4529  152.5137 F       1  UNL1       -0.1659
     27 F         139.6708  137.4035  154.3477 F       1  UNL1       -0.1659
     28 F         140.5989  134.9252  152.9349 F       1  UNL1       -0.1659
     29 C         144.6265  141.7714  163.0905 C.3     1  UNL1        0.0811
     30 C         145.6659  141.4479  164.1224 C.3     1  UNL1        0.0142
     31 C         144.2174  141.5013  164.5081 C.3     1  UNL1        0.0314
     32 C         143.1449  141.3762  165.5494 C.ar    1  UNL1       -0.0220
     33 C         142.2465  142.5407  165.8443 C.ar    1  UNL1       -0.0043
     34 C         141.1740  142.4156  166.8855 C.ar    1  UNL1        0.0035
     35 C         140.9998  141.1261  167.6318 C.ar    1  UNL1        0.0714
     36 C         141.8982  139.9617  167.3369 C.ar    1  UNL1        0.0035
     37 C         142.9708  140.0868  166.2956 C.ar    1  UNL1       -0.0043
     38 C         139.9273  141.0011  168.6730 C.3     1  UNL1        0.4186
     39 F         138.8548  140.8761  169.7141 F       1  UNL1       -0.1659
     40 F         139.7360  139.5602  168.3029 F       1  UNL1       -0.1659
     41 F         140.1186  142.4421  169.0430 F       1  UNL1       -0.1659
@<TRIPOS>BOND
     1    18    19    1
     2    19    20   ar
     3    20    21   ar
     4    21    22   ar
     5    22    12    1
     6    12    13   ar
     7    13    14   ar
     8    14    25    1
     9    25    26    1
    10    25    27    1
    11    25    28    1
    12    14    15   ar
    13    15    16   ar
    14    16     9    1
    15     9    10    2
    16     9    11    2
    17     9     1    1
    18     1     2    1
    19     2     3    1
    20     3     4    1
    21     4     5   am
    22     5     6    2
    23    29     5    1
    24    29    30    1
    25    30    31    1
    26    31    32    1
    27    32    33   ar
    28    33    34   ar
    29    34    35   ar
    30    35    38    1
    31    38    39    1
    32    38    40    1
    33    38    41    1
    34    35    36   ar
    35    36    37   ar
    36     4     7    1
    37     7     8    1
    38    16    17   ar
    39    22    23   ar
    40    23    19   ar
    41    17    12   ar
    42     8     1    1
    43    31    29    1
    44    37    32   ar
    45    23    24    1
