@<TRIPOS>MOLECULE
*****
 48 53 0 0 0
SMALL
GASTEIGER

@<TRIPOS>ATOM
      1 C         143.0611  141.1738  158.1755 C.2     1  UNL1        0.2459
      2 O         144.2689  141.6583  158.9212 O.2     1  UNL1       -0.2701
      3 N         141.9699  142.1357  157.8093 N.am    1  UNL1       -0.2975
      4 H         141.1771  141.8176  157.3198 H       1  UNL1        0.1499
      5 C         142.7111  136.8343  157.0365 C.ar    1  UNL1        0.0536
      6 C         142.9452  137.8710  155.9780 C.ar    1  UNL1        0.0048
      7 C         143.0619  139.3175  156.3577 C.ar    1  UNL1        0.0047
      8 C         142.9444  139.7273  157.7958 C.ar    1  UNL1        0.0534
      9 C         142.7103  138.6906  158.8543 C.ar    1  UNL1        0.0047
     10 C         142.5937  137.2441  158.4746 C.ar    1  UNL1        0.0048
     11 C         143.4012  131.5659  156.7187 C.ar    1  UNL1        0.0143
     12 C         142.7566  130.4849  155.9026 C.ar    1  UNL1        0.0091
     13 C         141.6694  130.8283  154.9280 C.ar    1  UNL1        0.0698
     14 C         141.2267  132.2528  154.7693 C.ar    1  UNL1        0.0326
     15 C         141.8714  133.3337  155.5854 C.ar    1  UNL1        0.1192
     16 N         141.6463  134.8155  155.6452 N.ar    1  UNL1       -0.2082
     17 C         142.5945  135.3879  156.6569 C.ar    1  UNL1        0.2296
     18 O         143.4055  134.2598  157.2223 O.2     1  UNL1       -0.4349
     19 C         142.9586  132.9903  156.5601 C.ar    1  UNL1        0.1607
     20 C         144.4865  129.8887  158.3798 C.3     1  UNL1        0.0048
     21 C         144.4885  131.2224  157.6933 C.3     1  UNL1        0.0254
     22 C         145.5778  132.2127  157.9815 C.3     1  UNL1        0.0048
     23 C         141.0247  129.7473  154.1119 C.1     1  UNL1        0.1005
     24 N         140.3801  128.6664  153.2958 N.1     1  UNL1       -0.1908
     25 C         142.0865  143.5821  158.1889 C.3     1  UNL1        0.1355
     26 C         141.6049  144.0464  159.5315 C.3     1  UNL1        0.2101
     27 C         141.6061  143.2394  160.7959 C.3     1  UNL1        0.1483
     28 N         141.0395  144.0934  161.8912 N.am    1  UNL1       -0.2059
     29 C         140.6882  145.4281  161.3037 C.2     1  UNL1        0.4098
     30 O         140.0922  146.5882  162.0446 O.2     1  UNL1       -0.2258
     31 O         141.0377  145.3990  159.8453 O.3     1  UNL1       -0.4345
     32 C         140.8564  143.6844  163.3228 C.ar    1  UNL1        0.1400
     33 C         139.5055  143.7900  163.9660 C.ar    1  UNL1        0.0348
     34 C         139.3223  143.3811  165.3975 C.ar    1  UNL1        0.0044
     35 C         140.4901  142.8665  166.1858 C.ar    1  UNL1        0.0194
     36 C         141.8411  142.7610  165.5425 C.ar    1  UNL1        0.1003
     37 N         142.0242  143.1699  164.1111 N.ar    1  UNL1       -0.2287
     38 C         140.3070  142.4576  167.6173 C.ar    1  UNL1        0.0059
     39 C         140.4060  143.4820  168.7085 C.ar    1  UNL1        0.0002
     40 C         140.2228  143.0731  170.1400 C.ar    1  UNL1        0.0000
     41 C         139.9407  141.6397  170.4803 C.ar    1  UNL1        0.0001
     42 C         139.8418  140.6153  169.3891 C.ar    1  UNL1        0.0045
     43 C         140.0249  141.0242  167.9576 C.ar    1  UNL1        0.0532
     44 C         139.9260  139.9998  166.8664 C.2     1  UNL1        0.2427
     45 N         138.5865  139.6390  166.2956 N.am    1  UNL1       -0.3253
     46 O         141.1664  139.3362  166.3459 O.2     1  UNL1       -0.2704
     47 H         137.7723  140.0745  166.6372 H       1  UNL1        0.1453
     48 H         138.5215  138.9666  165.5794 H       1  UNL1        0.1453
@<TRIPOS>BOND
     1    20    21    1
     2    21    22    1
     3    21    11    1
     4    11    12   ar
     5    12    13   ar
     6    13    23    1
     7    23    24    3
     8    13    14   ar
     9    14    15   ar
    10    15    16   ar
    11    16    17   ar
    12    17     5    1
    13     5     6   ar
    14     6     7   ar
    15     7     8   ar
    16     8     1    1
    17     1     2    2
    18     1     3   am
    19     3    25    1
    20    25    26    1
    21    26    27    1
    22    27    28    1
    23    28    32    1
    24    32    33   ar
    25    33    34   ar
    26    34    35   ar
    27    35    38    1
    28    38    39   ar
    29    39    40   ar
    30    40    41   ar
    31    41    42   ar
    32    42    43   ar
    33    43    44    1
    34    44    45   am
    35    44    46    2
    36    35    36   ar
    37    36    37   ar
    38    28    29   am
    39    29    30    2
    40    29    31    1
    41     8     9   ar
    42     9    10   ar
    43    17    18   ar
    44    18    19   ar
    45    19    11   ar
    46    19    15   ar
    47    10     5   ar
    48    31    26    1
    49    37    32   ar
    50    43    38   ar
    51     3     4    1
    52    45    47    1
    53    45    48    1
@<TRIPOS>MOLECULE
*****
 48 53 0 0 0
SMALL
GASTEIGER

@<TRIPOS>ATOM
      1 C         138.9789  140.8583  157.7810 C.2     1  UNL1        0.2459
      2 O         138.8381  139.5133  157.1320 O.2     1  UNL1       -0.2701
      3 N         138.6893  142.1036  156.9966 N.am    1  UNL1       -0.2975
      4 H         138.7818  142.9863  157.4226 H       1  UNL1        0.1499
      5 C         140.2704  141.1570  162.0814 C.ar    1  UNL1        0.0536
      6 C         141.1811  140.5319  161.0665 C.ar    1  UNL1        0.0048
      7 C         140.7505  140.4324  159.6330 C.ar    1  UNL1        0.0047
      8 C         139.4094  140.9578  159.2144 C.ar    1  UNL1        0.0534
      9 C         138.4987  141.5829  160.2293 C.ar    1  UNL1        0.0047
     10 C         138.9293  141.6825  161.6628 C.ar    1  UNL1        0.0048
     11 C         140.5190  140.7257  167.3810 C.ar    1  UNL1        0.0143
     12 C         141.5003  141.1971  168.4129 C.ar    1  UNL1        0.0091
     13 C         142.7172  141.9673  167.9940 C.ar    1  UNL1        0.0698
     14 C         142.9530  142.2663  166.5431 C.ar    1  UNL1        0.0326
     15 C         141.9717  141.7949  165.5112 C.ar    1  UNL1        0.1192
     16 N         141.9385  141.9383  164.0184 N.ar    1  UNL1       -0.2082
     17 C         140.7009  141.2565  163.5148 C.ar    1  UNL1        0.2296
     18 O         139.9693  140.6919  164.6963 O.2     1  UNL1       -0.4349
     19 C         140.7547  141.0246  165.9301 C.ar    1  UNL1        0.1607
     20 C         138.5480  139.1384  166.7930 C.3     1  UNL1        0.0048
     21 C         139.3020  139.9553  167.8000 C.3     1  UNL1        0.0254
     22 C         138.8390  140.0020  169.2261 C.3     1  UNL1        0.0048
     23 C         143.6986  142.4388  169.0260 C.1     1  UNL1        0.1005
     24 N         144.6798  142.9101  170.0579 N.1     1  UNL1       -0.1908
     25 C         138.2589  142.0040  155.5631 C.3     1  UNL1        0.1355
     26 C         136.8331  141.6791  155.2290 C.3     1  UNL1        0.2101
     27 C         135.8623  140.9571  156.1158 C.3     1  UNL1        0.1483
     28 N         134.5571  140.8508  155.3844 N.am    1  UNL1       -0.2059
     29 C         134.7212  141.5072  154.0455 C.2     1  UNL1        0.4098
     30 O         133.6642  141.6300  152.9883 O.2     1  UNL1       -0.2258
     31 O         136.1279  142.0190  153.9496 O.3     1  UNL1       -0.4345
     32 C         133.3072  140.2022  155.9010 C.ar    1  UNL1        0.1400
     33 C         132.0316  140.9876  155.9788 C.ar    1  UNL1        0.0348
     34 C         130.7817  140.3390  156.4954 C.ar    1  UNL1        0.0044
     35 C         130.8073  138.9048  156.9343 C.ar    1  UNL1        0.0194
     36 C         132.0829  138.1194  156.8565 C.ar    1  UNL1        0.1003
     37 N         133.3327  138.7680  156.3399 N.ar    1  UNL1       -0.2287
     38 C         129.5574  138.2562  157.4509 C.ar    1  UNL1        0.0059
     39 C         129.4409  137.9039  158.9042 C.ar    1  UNL1        0.0002
     40 C         128.1909  137.2552  159.4208 C.ar    1  UNL1        0.0000
     41 C         127.0575  136.9589  158.4841 C.ar    1  UNL1        0.0001
     42 C         127.1740  137.3112  157.0308 C.ar    1  UNL1        0.0045
     43 C         128.4239  137.9599  156.5141 C.ar    1  UNL1        0.0532
     44 C         128.5404  138.3122  155.0608 C.2     1  UNL1        0.2427
     45 N         129.0890  137.3108  154.0879 N.am    1  UNL1       -0.3253
     46 O         128.1084  139.6659  154.5802 O.2     1  UNL1       -0.2704
     47 H         129.3725  136.4224  154.4032 H       1  UNL1        0.1453
     48 H         129.1654  137.5421  153.1340 H       1  UNL1        0.1453
@<TRIPOS>BOND
     1    20    21    1
     2    21    22    1
     3    21    11    1
     4    11    12   ar
     5    12    13   ar
     6    13    23    1
     7    23    24    3
     8    13    14   ar
     9    14    15   ar
    10    15    16   ar
    11    16    17   ar
    12    17     5    1
    13     5     6   ar
    14     6     7   ar
    15     7     8   ar
    16     8     1    1
    17     1     2    2
    18     1     3   am
    19     3    25    1
    20    25    26    1
    21    26    27    1
    22    27    28    1
    23    28    32    1
    24    32    33   ar
    25    33    34   ar
    26    34    35   ar
    27    35    38    1
    28    38    39   ar
    29    39    40   ar
    30    40    41   ar
    31    41    42   ar
    32    42    43   ar
    33    43    44    1
    34    44    45   am
    35    44    46    2
    36    35    36   ar
    37    36    37   ar
    38    28    29   am
    39    29    30    2
    40    29    31    1
    41     8     9   ar
    42     9    10   ar
    43    17    18   ar
    44    18    19   ar
    45    19    11   ar
    46    19    15   ar
    47    10     5   ar
    48    31    26    1
    49    37    32   ar
    50    43    38   ar
    51     3     4    1
    52    45    47    1
    53    45    48    1
@<TRIPOS>MOLECULE
*****
 48 53 0 0 0
SMALL
GASTEIGER

@<TRIPOS>ATOM
      1 C         142.7407  140.8230  157.7059 C.2     1  UNL1        0.2459
      2 O         143.9857  141.6373  157.8980 O.2     1  UNL1       -0.2701
      3 N         141.3989  141.4935  157.7036 N.am    1  UNL1       -0.2975
      4 H         140.5818  140.9590  157.5775 H       1  UNL1        0.1499
      5 C         143.0312  136.3685  157.1370 C.ar    1  UNL1        0.0536
      6 C         142.7373  136.9336  158.4950 C.ar    1  UNL1        0.0048
      7 C         142.6405  138.4184  158.6846 C.ar    1  UNL1        0.0047
      8 C         142.8375  139.3382  157.5163 C.ar    1  UNL1        0.0534
      9 C         143.1315  138.7732  156.1582 C.ar    1  UNL1        0.0047
     10 C         143.2283  137.2883  155.9686 C.ar    1  UNL1        0.0048
     11 C         142.2025  131.3591  155.5393 C.ar    1  UNL1        0.0143
     12 C         142.8656  130.0502  155.8509 C.ar    1  UNL1        0.0091
     13 C         144.0239  130.0041  156.8027 C.ar    1  UNL1        0.0698
     14 C         144.5193  131.2670  157.4429 C.ar    1  UNL1        0.0326
     15 C         143.8562  132.5759  157.1313 C.ar    1  UNL1        0.1192
     16 N         144.1222  133.9737  157.6058 N.ar    1  UNL1       -0.2082
     17 C         143.1281  134.8837  156.9473 C.ar    1  UNL1        0.2296
     18 O         142.2478  134.0483  156.0657 O.2     1  UNL1       -0.4349
     19 C         142.6978  132.6219  156.1795 C.ar    1  UNL1        0.1607
     20 C         139.8374  130.5486  154.8327 C.3     1  UNL1        0.0048
     21 C         141.0441  131.4051  154.5874 C.3     1  UNL1        0.0254
     22 C         141.0924  132.3077  153.3903 C.3     1  UNL1        0.0048
     23 C         144.6870  128.6951  157.1143 C.1     1  UNL1        0.1005
     24 N         145.3501  127.3863  157.4260 N.1     1  UNL1       -0.1908
     25 C         141.3020  142.9783  157.8932 C.3     1  UNL1        0.1355
     26 C         141.0153  143.5436  159.2527 C.3     1  UNL1        0.2101
     27 C         141.0272  142.7817  160.5448 C.3     1  UNL1        0.1483
     28 N         140.6856  143.7373  161.6494 N.am    1  UNL1       -0.2059
     29 C         140.4627  145.0897  161.0401 C.2     1  UNL1        0.4098
     30 O         140.0997  146.3420  161.7818 O.2     1  UNL1       -0.2258
     31 O         140.6665  144.9699  159.5588 O.3     1  UNL1       -0.4345
     32 C         140.5847  143.3997  163.1075 C.ar    1  UNL1        0.1400
     33 C         139.2511  143.4289  163.7935 C.ar    1  UNL1        0.0348
     34 C         139.1502  143.0913  165.2515 C.ar    1  UNL1        0.0044
     35 C         140.3828  142.7245  166.0236 C.ar    1  UNL1        0.0194
     36 C         141.7164  142.6953  165.3374 C.ar    1  UNL1        0.1003
     37 N         141.8173  143.0329  163.8795 N.ar    1  UNL1       -0.2287
     38 C         140.2819  142.3870  167.4815 C.ar    1  UNL1        0.0059
     39 C         140.4865  143.4551  168.5146 C.ar    1  UNL1        0.0002
     40 C         140.3855  143.1175  169.9726 C.ar    1  UNL1        0.0000
     41 C         140.0800  141.7118  170.3976 C.ar    1  UNL1        0.0001
     42 C         139.8755  140.6437  169.3646 C.ar    1  UNL1        0.0045
     43 C         139.9764  140.9812  167.9065 C.ar    1  UNL1        0.0532
     44 C         139.7718  139.9131  166.8735 C.2     1  UNL1        0.2427
     45 N         140.9560  139.2266  166.2597 N.am    1  UNL1       -0.3253
     46 O         138.3831  139.5314  166.4541 O.2     1  UNL1       -0.2704
     47 H         141.8675  139.4771  166.5349 H       1  UNL1        0.1453
     48 H         140.8217  138.5256  165.5817 H       1  UNL1        0.1453
@<TRIPOS>BOND
     1    20    21    1
     2    21    22    1
     3    21    11    1
     4    11    12   ar
     5    12    13   ar
     6    13    23    1
     7    23    24    3
     8    13    14   ar
     9    14    15   ar
    10    15    16   ar
    11    16    17   ar
    12    17     5    1
    13     5     6   ar
    14     6     7   ar
    15     7     8   ar
    16     8     1    1
    17     1     2    2
    18     1     3   am
    19     3    25    1
    20    25    26    1
    21    26    27    1
    22    27    28    1
    23    28    32    1
    24    32    33   ar
    25    33    34   ar
    26    34    35   ar
    27    35    38    1
    28    38    39   ar
    29    39    40   ar
    30    40    41   ar
    31    41    42   ar
    32    42    43   ar
    33    43    44    1
    34    44    45   am
    35    44    46    2
    36    35    36   ar
    37    36    37   ar
    38    28    29   am
    39    29    30    2
    40    29    31    1
    41     8     9   ar
    42     9    10   ar
    43    17    18   ar
    44    18    19   ar
    45    19    11   ar
    46    19    15   ar
    47    10     5   ar
    48    31    26    1
    49    37    32   ar
    50    43    38   ar
    51     3     4    1
    52    45    47    1
    53    45    48    1
@<TRIPOS>MOLECULE
*****
 48 53 0 0 0
SMALL
GASTEIGER

@<TRIPOS>ATOM
      1 C         138.8517  140.4088  157.8728 C.2     1  UNL1        0.2459
      2 O         138.7179  139.1519  157.0653 O.2     1  UNL1       -0.2701
      3 N         138.5854  141.7409  157.2367 N.am    1  UNL1       -0.2975
      4 H         138.6732  142.5659  157.7668 H       1  UNL1        0.1499
      5 C         140.0521  140.1833  162.2040 C.ar    1  UNL1        0.0536
      6 C         139.8998  138.9253  161.4014 C.ar    1  UNL1        0.0048
      7 C         139.4997  139.0005  159.9577 C.ar    1  UNL1        0.0047
      8 C         139.2518  140.3337  159.3165 C.ar    1  UNL1        0.0534
      9 C         139.4040  141.5918  160.1191 C.ar    1  UNL1        0.0047
     10 C         139.8042  141.5165  161.5628 C.ar    1  UNL1        0.0048
     11 C         142.6672  139.1980  166.7344 C.ar    1  UNL1        0.0143
     12 C         142.3873  139.4977  168.1772 C.ar    1  UNL1        0.0091
     13 C         141.1346  140.2271  168.5624 C.ar    1  UNL1        0.0698
     14 C         140.1616  140.6570  167.5047 C.ar    1  UNL1        0.0326
     15 C         140.4415  140.3573  166.0618 C.ar    1  UNL1        0.1192
     16 N         139.6738  140.6542  164.8079 N.ar    1  UNL1       -0.2082
     17 C         140.4522  140.1082  163.6477 C.ar    1  UNL1        0.2296
     18 O         141.7009  139.4738  164.1846 O.2     1  UNL1       -0.4349
     19 C         141.6943  139.6278  165.6767 C.ar    1  UNL1        0.1607
     20 C         144.7047  138.9077  165.1487 C.3     1  UNL1        0.0048
     21 C         143.9200  138.4684  166.3492 C.3     1  UNL1        0.0254
     22 C         144.3881  137.2996  167.1646 C.3     1  UNL1        0.0048
     23 C         140.8547  140.5268  170.0053 C.1     1  UNL1        0.1005
     24 N         140.5749  140.8265  171.4482 N.1     1  UNL1       -0.1908
     25 C         138.1853  141.8160  155.7930 C.3     1  UNL1        0.1355
     26 C         136.7692  141.5274  155.3912 C.3     1  UNL1        0.2101
     27 C         135.7269  140.8693  156.2459 C.3     1  UNL1        0.1483
     28 N         134.4604  140.7815  155.4471 N.am    1  UNL1       -0.2059
     29 C         134.7199  141.3853  154.0987 C.2     1  UNL1        0.4098
     30 O         133.7268  141.5067  152.9811 O.2     1  UNL1       -0.2258
     31 O         136.1469  141.8463  154.0642 O.3     1  UNL1       -0.4345
     32 C         133.1622  140.1931  155.9146 C.ar    1  UNL1        0.1400
     33 C         131.9228  141.0376  155.9422 C.ar    1  UNL1        0.0348
     34 C         130.6246  140.4492  156.4097 C.ar    1  UNL1        0.0044
     35 C         130.5658  139.0163  156.8495 C.ar    1  UNL1        0.0194
     36 C         131.8052  138.1719  156.8218 C.ar    1  UNL1        0.1003
     37 N         133.1033  138.7602  156.3544 N.ar    1  UNL1       -0.2287
     38 C         129.2676  138.4280  157.3169 C.ar    1  UNL1        0.0059
     39 C         129.0478  138.1604  158.7764 C.ar    1  UNL1        0.0002
     40 C         127.7496  137.5721  159.2438 C.ar    1  UNL1        0.0000
     41 C         126.6712  137.2513  158.2518 C.ar    1  UNL1        0.0001
     42 C         126.8910  137.5188  156.7924 C.ar    1  UNL1        0.0045
     43 C         128.1892  138.1072  156.3249 C.ar    1  UNL1        0.0532
     44 C         128.4090  138.3748  154.8655 C.2     1  UNL1        0.2427
     45 N         128.9986  137.3103  153.9882 N.am    1  UNL1       -0.3253
     46 O         128.0392  139.7068  154.2831 O.2     1  UNL1       -0.2704
     47 H         129.2414  136.4361  154.3704 H       1  UNL1        0.1453
     48 H         129.1429  137.4860  153.0303 H       1  UNL1        0.1453
@<TRIPOS>BOND
     1    20    21    1
     2    21    22    1
     3    21    11    1
     4    11    12   ar
     5    12    13   ar
     6    13    23    1
     7    23    24    3
     8    13    14   ar
     9    14    15   ar
    10    15    16   ar
    11    16    17   ar
    12    17     5    1
    13     5     6   ar
    14     6     7   ar
    15     7     8   ar
    16     8     1    1
    17     1     2    2
    18     1     3   am
    19     3    25    1
    20    25    26    1
    21    26    27    1
    22    27    28    1
    23    28    32    1
    24    32    33   ar
    25    33    34   ar
    26    34    35   ar
    27    35    38    1
    28    38    39   ar
    29    39    40   ar
    30    40    41   ar
    31    41    42   ar
    32    42    43   ar
    33    43    44    1
    34    44    45   am
    35    44    46    2
    36    35    36   ar
    37    36    37   ar
    38    28    29   am
    39    29    30    2
    40    29    31    1
    41     8     9   ar
    42     9    10   ar
    43    17    18   ar
    44    18    19   ar
    45    19    11   ar
    46    19    15   ar
    47    10     5   ar
    48    31    26    1
    49    37    32   ar
    50    43    38   ar
    51     3     4    1
    52    45    47    1
    53    45    48    1
@<TRIPOS>MOLECULE
*****
 48 53 0 0 0
SMALL
GASTEIGER

@<TRIPOS>ATOM
      1 C         142.6050  138.6002  156.9398 C.2     1  UNL1        0.2459
      2 O         143.9825  138.4474  156.3662 O.2     1  UNL1       -0.2701
      3 N         141.4057  138.2227  156.1216 N.am    1  UNL1       -0.2975
      4 H         140.5016  138.3230  156.4981 H       1  UNL1        0.1499
      5 C         142.0702  140.1913  161.1150 C.ar    1  UNL1        0.0536
      6 C         143.2338  140.6435  160.2834 C.ar    1  UNL1        0.0048
      7 C         143.4120  140.1131  158.8917 C.ar    1  UNL1        0.0047
      8 C         142.4267  139.1305  158.3315 C.ar    1  UNL1        0.0534
      9 C         141.2631  138.6783  159.1631 C.ar    1  UNL1        0.0047
     10 C         141.0849  139.2087  160.5549 C.ar    1  UNL1        0.0048
     11 C         140.1821  142.6574  165.4379 C.ar    1  UNL1        0.0143
     12 C         140.6682  142.7865  166.8511 C.ar    1  UNL1        0.0091
     13 C         141.9492  142.1261  167.2668 C.ar    1  UNL1        0.0698
     14 C         142.7442  141.3366  166.2694 C.ar    1  UNL1        0.0326
     15 C         142.2580  141.2075  164.8563 C.ar    1  UNL1        0.1192
     16 N         142.8235  140.4990  163.6612 N.ar    1  UNL1       -0.2082
     17 C         141.8919  140.7216  162.5068 C.ar    1  UNL1        0.2296
     18 O         140.7507  141.5676  162.9884 O.2     1  UNL1       -0.4349
     19 C         140.9770  141.8679  164.4405 C.ar    1  UNL1        0.1607
     20 C         137.8032  142.5032  164.4050 C.3     1  UNL1        0.0048
     21 C         138.9011  143.3178  165.0222 C.3     1  UNL1        0.0254
     22 C         138.7180  144.7930  165.2236 C.3     1  UNL1        0.0048
     23 C         142.4353  142.2552  168.6801 C.1     1  UNL1        0.1005
     24 N         142.9214  142.3843  170.0932 N.1     1  UNL1       -0.1908
     25 C         141.5840  137.6924  154.7299 C.3     1  UNL1        0.1355
     26 C         141.8811  136.2381  154.5138 C.3     1  UNL1        0.2101
     27 C         142.4063  135.2829  155.5442 C.3     1  UNL1        0.1483
     28 N         142.5549  133.9381  154.8966 N.am    1  UNL1       -0.2059
     29 C         142.1215  134.0621  153.4659 C.2     1  UNL1        0.4098
     30 O         142.1072  132.9585  152.4501 O.2     1  UNL1       -0.2258
     31 O         141.7051  135.4837  153.2294 O.3     1  UNL1       -0.4345
     32 C         143.0499  132.6886  155.5627 C.ar    1  UNL1        0.1400
     33 C         144.4715  132.6025  156.0336 C.ar    1  UNL1        0.0348
     34 C         144.9666  131.3529  156.6997 C.ar    1  UNL1        0.0044
     35 C         144.0401  130.1896  156.8949 C.ar    1  UNL1        0.0194
     36 C         142.6185  130.2758  156.4240 C.ar    1  UNL1        0.1003
     37 N         142.1234  131.5252  155.7579 N.ar    1  UNL1       -0.2287
     38 C         144.5351  128.9401  157.5609 C.ar    1  UNL1        0.0059
     39 C         144.5995  128.8631  159.0576 C.ar    1  UNL1        0.0002
     40 C         145.0946  127.6136  159.7236 C.ar    1  UNL1        0.0000
     41 C         145.5252  126.4411  158.8931 C.ar    1  UNL1        0.0001
     42 C         145.4608  126.5181  157.3965 C.ar    1  UNL1        0.0045
     43 C         144.9658  127.7677  156.7304 C.ar    1  UNL1        0.0532
     44 C         144.9014  127.8447  155.2338 C.2     1  UNL1        0.2427
     45 N         146.0701  128.3780  154.4592 N.am    1  UNL1       -0.3253
     46 O         143.6683  127.3884  154.5117 O.2     1  UNL1       -0.2704
     47 H         146.8794  128.6774  154.9332 H       1  UNL1        0.1453
     48 H         146.0278  128.4285  153.4769 H       1  UNL1        0.1453
@<TRIPOS>BOND
     1    20    21    1
     2    21    22    1
     3    21    11    1
     4    11    12   ar
     5    12    13   ar
     6    13    23    1
     7    23    24    3
     8    13    14   ar
     9    14    15   ar
    10    15    16   ar
    11    16    17   ar
    12    17     5    1
    13     5     6   ar
    14     6     7   ar
    15     7     8   ar
    16     8     1    1
    17     1     2    2
    18     1     3   am
    19     3    25    1
    20    25    26    1
    21    26    27    1
    22    27    28    1
    23    28    32    1
    24    32    33   ar
    25    33    34   ar
    26    34    35   ar
    27    35    38    1
    28    38    39   ar
    29    39    40   ar
    30    40    41   ar
    31    41    42   ar
    32    42    43   ar
    33    43    44    1
    34    44    45   am
    35    44    46    2
    36    35    36   ar
    37    36    37   ar
    38    28    29   am
    39    29    30    2
    40    29    31    1
    41     8     9   ar
    42     9    10   ar
    43    17    18   ar
    44    18    19   ar
    45    19    11   ar
    46    19    15   ar
    47    10     5   ar
    48    31    26    1
    49    37    32   ar
    50    43    38   ar
    51     3     4    1
    52    45    47    1
    53    45    48    1
@<TRIPOS>MOLECULE
*****
 48 53 0 0 0
SMALL
GASTEIGER

@<TRIPOS>ATOM
      1 C         142.6444  139.0737  159.7238 C.2     1  UNL1        0.2459
      2 O         144.1256  139.1314  159.4945 O.2     1  UNL1       -0.2701
      3 N         141.7145  138.8519  158.5679 N.am    1  UNL1       -0.2975
      4 H         140.7423  138.8140  158.7184 H       1  UNL1        0.1499
      5 C         140.9902  139.5657  163.8798 C.ar    1  UNL1        0.0536
      6 C         141.2239  140.7710  163.0180 C.ar    1  UNL1        0.0048
      7 C         141.7753  140.6069  161.6327 C.ar    1  UNL1        0.0047
      8 C         142.0930  139.2376  161.1091 C.ar    1  UNL1        0.0534
      9 C         141.8593  138.0323  161.9709 C.ar    1  UNL1        0.0047
     10 C         141.3079  138.1964  163.3562 C.ar    1  UNL1        0.0048
     11 C         140.1835  141.1290  168.9037 C.ar    1  UNL1        0.0143
     12 C         139.1707  140.7685  169.9499 C.ar    1  UNL1        0.0091
     13 C         138.1003  139.7637  169.6428 C.ar    1  UNL1        0.0698
     14 C         138.0425  139.1192  168.2895 C.ar    1  UNL1        0.0326
     15 C         139.0552  139.4796  167.2433 C.ar    1  UNL1        0.1192
     16 N         139.2488  139.0131  165.8309 N.ar    1  UNL1       -0.2082
     17 C         140.4389  139.7297  165.2651 C.ar    1  UNL1        0.2296
     18 O         140.9809  140.6391  166.3278 O.2     1  UNL1       -0.4349
     19 C         140.1257  140.4845  167.5504 C.ar    1  UNL1        0.1607
     20 C         142.6974  141.7279  169.1710 C.3     1  UNL1        0.0048
     21 C         141.2539  142.1339  169.2108 C.3     1  UNL1        0.0254
     22 C         140.8809  143.5448  169.5578 C.3     1  UNL1        0.0048
     23 C         137.0875  139.4033  170.6890 C.1     1  UNL1        0.1005
     24 N         136.0748  139.0429  171.7352 N.1     1  UNL1       -0.1908
     25 C         142.2659  138.6879  157.1826 C.3     1  UNL1        0.1355
     26 C         142.4569  137.3152  156.6090 C.3     1  UNL1        0.2101
     27 C         142.8383  136.0842  157.3766 C.3     1  UNL1        0.1483
     28 N         142.9172  134.9406  156.4092 N.am    1  UNL1       -0.2059
     29 C         142.5845  135.4648  155.0436 C.2     1  UNL1        0.4098
     30 O         142.5435  134.6623  153.7770 O.2     1  UNL1       -0.2258
     31 O         142.3000  136.9324  155.1672 O.3     1  UNL1       -0.4345
     32 C         143.2673  133.5218  156.7478 C.ar    1  UNL1        0.1400
     33 C         144.5868  133.2073  157.3880 C.ar    1  UNL1        0.0348
     34 C         144.9369  131.7886  157.7266 C.ar    1  UNL1        0.0044
     35 C         143.9675  130.6844  157.4249 C.ar    1  UNL1        0.0194
     36 C         142.6480  130.9990  156.7847 C.ar    1  UNL1        0.1003
     37 N         142.2979  132.4177  156.4461 N.ar    1  UNL1       -0.2287
     38 C         144.3176  129.2657  157.7635 C.ar    1  UNL1        0.0059
     39 C         144.5435  128.8695  159.1925 C.ar    1  UNL1        0.0002
     40 C         144.8936  127.4508  159.5310 C.ar    1  UNL1        0.0000
     41 C         145.0178  126.4282  158.4407 C.ar    1  UNL1        0.0001
     42 C         144.7919  126.8244  157.0117 C.ar    1  UNL1        0.0045
     43 C         144.4418  128.2431  156.6731 C.ar    1  UNL1        0.0532
     44 C         144.2158  128.6393  155.2442 C.2     1  UNL1        0.2427
     45 N         142.9422  128.2543  154.5514 N.am    1  UNL1       -0.3253
     46 O         145.2635  129.4206  154.5078 O.2     1  UNL1       -0.2704
     47 H         142.2546  127.7415  155.0347 H       1  UNL1        0.1453
     48 H         142.7939  128.5143  153.6135 H       1  UNL1        0.1453
@<TRIPOS>BOND
     1    20    21    1
     2    21    22    1
     3    21    11    1
     4    11    12   ar
     5    12    13   ar
     6    13    23    1
     7    23    24    3
     8    13    14   ar
     9    14    15   ar
    10    15    16   ar
    11    16    17   ar
    12    17     5    1
    13     5     6   ar
    14     6     7   ar
    15     7     8   ar
    16     8     1    1
    17     1     2    2
    18     1     3   am
    19     3    25    1
    20    25    26    1
    21    26    27    1
    22    27    28    1
    23    28    32    1
    24    32    33   ar
    25    33    34   ar
    26    34    35   ar
    27    35    38    1
    28    38    39   ar
    29    39    40   ar
    30    40    41   ar
    31    41    42   ar
    32    42    43   ar
    33    43    44    1
    34    44    45   am
    35    44    46    2
    36    35    36   ar
    37    36    37   ar
    38    28    29   am
    39    29    30    2
    40    29    31    1
    41     8     9   ar
    42     9    10   ar
    43    17    18   ar
    44    18    19   ar
    45    19    11   ar
    46    19    15   ar
    47    10     5   ar
    48    31    26    1
    49    37    32   ar
    50    43    38   ar
    51     3     4    1
    52    45    47    1
    53    45    48    1
@<TRIPOS>MOLECULE
*****
 48 53 0 0 0
SMALL
GASTEIGER

@<TRIPOS>ATOM
      1 C         143.2826  139.6776  158.0989 C.2     1  UNL1        0.2459
      2 O         144.6411  139.9461  157.5225 O.2     1  UNL1       -0.2701
      3 N         142.2044  139.0912  157.2365 N.am    1  UNL1       -0.2975
      4 H         141.3128  138.9150  157.6149 H       1  UNL1        0.1499
      5 C         142.4414  140.6315  162.4155 C.ar    1  UNL1        0.0536
      6 C         141.7626  141.4117  161.3289 C.ar    1  UNL1        0.0048
      7 C         142.0431  141.0937  159.8901 C.ar    1  UNL1        0.0047
      8 C         143.0022  139.9956  159.5377 C.ar    1  UNL1        0.0534
      9 C         143.6810  139.2154  160.6243 C.ar    1  UNL1        0.0047
     10 C         143.4006  139.5334  162.0631 C.ar    1  UNL1        0.0048
     11 C         142.1383  140.4270  167.7259 C.ar    1  UNL1        0.0143
     12 C         141.5698  141.3458  168.7663 C.ar    1  UNL1        0.0091
     13 C         140.9184  142.6327  168.3550 C.ar    1  UNL1        0.0698
     14 C         140.8354  143.0010  166.9033 C.ar    1  UNL1        0.0326
     15 C         141.4039  142.0822  165.8628 C.ar    1  UNL1        0.1192
     16 N         141.4692  142.1775  164.3673 N.ar    1  UNL1       -0.2082
     17 C         142.1611  140.9495  163.8543 C.ar    1  UNL1        0.2296
     18 O         142.5233  140.0951  165.0328 O.2     1  UNL1       -0.4349
     19 C         142.0554  140.7951  166.2742 C.ar    1  UNL1        0.1607
     20 C         142.7541  138.7066  169.5728 C.3     1  UNL1        0.0048
     21 C         142.7898  139.1399  168.1372 C.3     1  UNL1        0.0254
     22 C         143.4770  138.2863  167.1129 C.3     1  UNL1        0.0048
     23 C         140.3498  143.5516  169.3955 C.1     1  UNL1        0.1005
     24 N         139.7813  144.4705  170.4360 N.1     1  UNL1       -0.1908
     25 C         142.4848  138.7733  155.7976 C.3     1  UNL1        0.1355
     26 C         142.4878  137.3476  155.3314 C.3     1  UNL1        0.2101
     27 C         142.9440  136.1608  156.1272 C.3     1  UNL1        0.1483
     28 N         142.7733  134.9381  155.2751 N.am    1  UNL1       -0.2059
     29 C         142.2118  135.3694  153.9527 C.2     1  UNL1        0.4098
     30 O         141.8842  134.4694  152.7982 O.2     1  UNL1       -0.2258
     31 O         142.0353  136.8586  153.9876 O.3     1  UNL1       -0.4345
     32 C         143.1059  133.5312  155.6752 C.ar    1  UNL1        0.1400
     33 C         144.5051  133.1789  156.0853 C.ar    1  UNL1        0.0348
     34 C         144.8376  131.7720  156.4853 C.ar    1  UNL1        0.0044
     35 C         143.7710  130.7174  156.4753 C.ar    1  UNL1        0.0194
     36 C         142.3719  131.0698  156.0652 C.ar    1  UNL1        0.1003
     37 N         142.0393  132.4766  155.6652 N.ar    1  UNL1       -0.2287
     38 C         144.1036  129.3106  156.8754 C.ar    1  UNL1        0.0059
     39 C         144.1359  128.9311  158.3262 C.ar    1  UNL1        0.0002
     40 C         144.4685  127.5242  158.7263 C.ar    1  UNL1        0.0000
     41 C         144.7687  126.4968  157.6755 C.ar    1  UNL1        0.0001
     42 C         144.7364  126.8762  156.2246 C.ar    1  UNL1        0.0045
     43 C         144.4038  128.2831  155.8246 C.ar    1  UNL1        0.0532
     44 C         144.3715  128.6626  154.3737 C.2     1  UNL1        0.2427
     45 N         145.6395  129.0474  153.6707 N.am    1  UNL1       -0.3253
     46 O         143.0712  128.6572  153.6259 O.2     1  UNL1       -0.2704
     47 H         146.4929  129.0509  154.1615 H       1  UNL1        0.1453
     48 H         145.6183  129.2965  152.7184 H       1  UNL1        0.1453
@<TRIPOS>BOND
     1    20    21    1
     2    21    22    1
     3    21    11    1
     4    11    12   ar
     5    12    13   ar
     6    13    23    1
     7    23    24    3
     8    13    14   ar
     9    14    15   ar
    10    15    16   ar
    11    16    17   ar
    12    17     5    1
    13     5     6   ar
    14     6     7   ar
    15     7     8   ar
    16     8     1    1
    17     1     2    2
    18     1     3   am
    19     3    25    1
    20    25    26    1
    21    26    27    1
    22    27    28    1
    23    28    32    1
    24    32    33   ar
    25    33    34   ar
    26    34    35   ar
    27    35    38    1
    28    38    39   ar
    29    39    40   ar
    30    40    41   ar
    31    41    42   ar
    32    42    43   ar
    33    43    44    1
    34    44    45   am
    35    44    46    2
    36    35    36   ar
    37    36    37   ar
    38    28    29   am
    39    29    30    2
    40    29    31    1
    41     8     9   ar
    42     9    10   ar
    43    17    18   ar
    44    18    19   ar
    45    19    11   ar
    46    19    15   ar
    47    10     5   ar
    48    31    26    1
    49    37    32   ar
    50    43    38   ar
    51     3     4    1
    52    45    47    1
    53    45    48    1
@<TRIPOS>MOLECULE
*****
 48 53 0 0 0
SMALL
GASTEIGER

@<TRIPOS>ATOM
      1 C         142.7807  141.5600  159.7852 C.2     1  UNL1        0.2459
      2 O         144.1918  141.1527  159.4804 O.2     1  UNL1       -0.2701
      3 N         141.9057  142.1059  158.6960 N.am    1  UNL1       -0.2975
      4 H         140.9796  142.3732  158.8961 H       1  UNL1        0.1499
      5 C         141.1726  141.1444  163.9675 C.ar    1  UNL1        0.0536
      6 C         141.0671  139.9980  163.0060 C.ar    1  UNL1        0.0048
      7 C         141.6031  140.1366  161.6119 C.ar    1  UNL1        0.0047
      8 C         142.2447  141.4215  161.1793 C.ar    1  UNL1        0.0534
      9 C         142.3502  142.5680  162.1407 C.ar    1  UNL1        0.0047
     10 C         141.8142  142.4294  163.5348 C.ar    1  UNL1        0.0048
     11 C         140.2201  141.8078  169.1624 C.ar    1  UNL1        0.0143
     12 C         139.3196  141.1204  170.1456 C.ar    1  UNL1        0.0091
     13 C         138.4472  139.9857  169.6974 C.ar    1  UNL1        0.0698
     14 C         138.4751  139.5381  168.2659 C.ar    1  UNL1        0.0326
     15 C         139.3755  140.2255  167.2827 C.ar    1  UNL1        0.1192
     16 N         139.6156  140.0065  165.8184 N.ar    1  UNL1       -0.2082
     17 C         140.6366  141.0059  165.3616 C.ar    1  UNL1        0.2296
     18 O         141.0274  141.8427  166.5436 O.2     1  UNL1       -0.4349
     19 C         140.2480  141.3603  167.7310 C.ar    1  UNL1        0.1607
     20 C         140.4830  144.2736  169.9374 C.3     1  UNL1        0.0048
     21 C         141.0926  142.9426  169.6106 C.3     1  UNL1        0.0254
     22 C         142.5749  142.7464  169.7320 C.3     1  UNL1        0.0048
     23 C         137.5467  139.2983  170.6807 C.1     1  UNL1        0.1005
     24 N         136.6462  138.6110  171.6639 N.1     1  UNL1       -0.1908
     25 C         142.4417  142.2444  157.3019 C.3     1  UNL1        0.1355
     26 C         142.8883  141.0283  156.5458 C.3     1  UNL1        0.2101
     27 C         142.3251  139.6454  156.6883 C.3     1  UNL1        0.1483
     28 N         143.0652  138.7440  155.7451 N.am    1  UNL1       -0.2059
     29 C         144.0860  139.5699  155.0196 C.2     1  UNL1        0.4098
     30 O         145.0472  139.0714  153.9816 O.2     1  UNL1       -0.2258
     31 O         143.9766  140.9816  155.5146 O.3     1  UNL1       -0.4345
     32 C         142.8266  137.2748  155.5598 C.ar    1  UNL1        0.1400
     33 C         143.9845  136.3506  155.3250 C.ar    1  UNL1        0.0348
     34 C         143.7459  134.8813  155.1397 C.ar    1  UNL1        0.0044
     35 C         142.3493  134.3362  155.1891 C.ar    1  UNL1        0.0194
     36 C         141.1914  135.2604  155.4239 C.ar    1  UNL1        0.1003
     37 N         141.4300  136.7296  155.6092 N.ar    1  UNL1       -0.2287
     38 C         142.1107  132.8670  155.0038 C.ar    1  UNL1        0.0059
     39 C         141.0686  132.3928  154.0348 C.ar    1  UNL1        0.0002
     40 C         140.8300  130.9235  153.8495 C.ar    1  UNL1        0.0000
     41 C         141.6335  129.9285  154.6332 C.ar    1  UNL1        0.0001
     42 C         142.6757  130.4027  155.6023 C.ar    1  UNL1        0.0045
     43 C         142.9143  131.8720  155.7876 C.ar    1  UNL1        0.0532
     44 C         143.9564  132.3462  156.7566 C.2     1  UNL1        0.2427
     45 N         143.5432  132.9930  158.0454 N.am    1  UNL1       -0.3253
     46 O         145.4118  132.1737  156.4368 O.2     1  UNL1       -0.2704
     47 H         142.5881  133.1062  158.2553 H       1  UNL1        0.1453
     48 H         144.2273  133.3043  158.6814 H       1  UNL1        0.1453
@<TRIPOS>BOND
     1    20    21    1
     2    21    22    1
     3    21    11    1
     4    11    12   ar
     5    12    13   ar
     6    13    23    1
     7    23    24    3
     8    13    14   ar
     9    14    15   ar
    10    15    16   ar
    11    16    17   ar
    12    17     5    1
    13     5     6   ar
    14     6     7   ar
    15     7     8   ar
    16     8     1    1
    17     1     2    2
    18     1     3   am
    19     3    25    1
    20    25    26    1
    21    26    27    1
    22    27    28    1
    23    28    32    1
    24    32    33   ar
    25    33    34   ar
    26    34    35   ar
    27    35    38    1
    28    38    39   ar
    29    39    40   ar
    30    40    41   ar
    31    41    42   ar
    32    42    43   ar
    33    43    44    1
    34    44    45   am
    35    44    46    2
    36    35    36   ar
    37    36    37   ar
    38    28    29   am
    39    29    30    2
    40    29    31    1
    41     8     9   ar
    42     9    10   ar
    43    17    18   ar
    44    18    19   ar
    45    19    11   ar
    46    19    15   ar
    47    10     5   ar
    48    31    26    1
    49    37    32   ar
    50    43    38   ar
    51     3     4    1
    52    45    47    1
    53    45    48    1
@<TRIPOS>MOLECULE
*****
 48 53 0 0 0
SMALL
GASTEIGER

@<TRIPOS>ATOM
      1 C         142.2772  141.2916  157.4630 C.2     1  UNL1        0.2459
      2 O         143.5842  141.9920  157.6887 O.2     1  UNL1       -0.2701
      3 N         140.9930  142.0649  157.5153 N.am    1  UNL1       -0.2975
      4 H         140.1351  141.6052  157.3671 H       1  UNL1        0.1499
      5 C         142.2088  136.8700  156.6290 C.ar    1  UNL1        0.0536
      6 C         142.4686  137.3669  158.0202 C.ar    1  UNL1        0.0048
      7 C         142.4914  138.8408  158.2982 C.ar    1  UNL1        0.0047
      8 C         142.2544  139.8178  157.1849 C.ar    1  UNL1        0.0534
      9 C         141.9946  139.3209  155.7937 C.ar    1  UNL1        0.0047
     10 C         141.9718  137.8470  155.5157 C.ar    1  UNL1        0.0048
     11 C         143.2548  131.6509  156.6555 C.ar    1  UNL1        0.0143
     12 C         142.6732  130.4750  155.9281 C.ar    1  UNL1        0.0091
     13 C         141.5496  130.6760  154.9550 C.ar    1  UNL1        0.0698
     14 C         141.0075  132.0529  154.7091 C.ar    1  UNL1        0.0326
     15 C         141.5891  133.2287  155.4365 C.ar    1  UNL1        0.1192
     16 N         141.2635  134.6925  155.4002 N.ar    1  UNL1       -0.2082
     17 C         142.1860  135.3962  156.3509 C.ar    1  UNL1        0.2296
     18 O         143.0816  134.3673  156.9748 O.2     1  UNL1       -0.4349
     19 C         142.7127  133.0277  156.4097 C.ar    1  UNL1        0.1607
     20 C         144.5785  130.1124  158.2775 C.3     1  UNL1        0.0048
     21 C         144.3784  131.4499  157.6287 C.3     1  UNL1        0.0254
     22 C         145.3020  132.5866  157.9531 C.3     1  UNL1        0.0048
     23 C         140.9680  129.5000  154.2276 C.1     1  UNL1        0.1005
     24 N         140.3865  128.3241  153.5002 N.1     1  UNL1       -0.1908
     25 C         141.0158  143.5388  157.7933 C.3     1  UNL1        0.1355
     26 C         140.2248  144.4771  156.9308 C.3     1  UNL1        0.2101
     27 C         140.6317  145.8654  156.5347 C.3     1  UNL1        0.1483
     28 N         139.5464  146.4381  155.6721 N.am    1  UNL1       -0.2059
     29 C         138.4687  145.4037  155.5351 C.2     1  UNL1        0.4098
     30 O         137.1954  145.5549  154.7568 O.2     1  UNL1       -0.2258
     31 O         138.8881  144.1917  156.3131 O.3     1  UNL1       -0.4345
     32 C         139.5399  147.8052  155.0548 C.ar    1  UNL1        0.1400
     33 C         138.9464  148.9626  155.8018 C.ar    1  UNL1        0.0348
     34 C         138.9399  150.3297  155.1846 C.ar    1  UNL1        0.0044
     35 C         139.5269  150.5394  153.8202 C.ar    1  UNL1        0.0194
     36 C         140.1204  149.3819  153.0732 C.ar    1  UNL1        0.1003
     37 N         140.1269  148.0149  153.6904 N.ar    1  UNL1       -0.2287
     38 C         139.5203  151.9064  153.2030 C.ar    1  UNL1        0.0059
     39 C         138.2217  152.5449  152.8082 C.ar    1  UNL1        0.0002
     40 C         138.2152  153.9120  152.1909 C.ar    1  UNL1        0.0000
     41 C         139.5073  154.6406  151.9684 C.ar    1  UNL1        0.0001
     42 C         140.8059  154.0022  152.3632 C.ar    1  UNL1        0.0045
     43 C         140.8124  152.6351  152.9805 C.ar    1  UNL1        0.0532
     44 C         142.1111  151.9966  153.3752 C.2     1  UNL1        0.2427
     45 N         143.0279  151.4481  152.3222 N.am    1  UNL1       -0.3253
     46 O         142.4930  151.9065  154.8230 O.2     1  UNL1       -0.2704
     47 H         142.7773  151.5072  151.3720 H       1  UNL1        0.1453
     48 H         143.8802  151.0291  152.5813 H       1  UNL1        0.1453
@<TRIPOS>BOND
     1    20    21    1
     2    21    22    1
     3    21    11    1
     4    11    12   ar
     5    12    13   ar
     6    13    23    1
     7    23    24    3
     8    13    14   ar
     9    14    15   ar
    10    15    16   ar
    11    16    17   ar
    12    17     5    1
    13     5     6   ar
    14     6     7   ar
    15     7     8   ar
    16     8     1    1
    17     1     2    2
    18     1     3   am
    19     3    25    1
    20    25    26    1
    21    26    27    1
    22    27    28    1
    23    28    32    1
    24    32    33   ar
    25    33    34   ar
    26    34    35   ar
    27    35    38    1
    28    38    39   ar
    29    39    40   ar
    30    40    41   ar
    31    41    42   ar
    32    42    43   ar
    33    43    44    1
    34    44    45   am
    35    44    46    2
    36    35    36   ar
    37    36    37   ar
    38    28    29   am
    39    29    30    2
    40    29    31    1
    41     8     9   ar
    42     9    10   ar
    43    17    18   ar
    44    18    19   ar
    45    19    11   ar
    46    19    15   ar
    47    10     5   ar
    48    31    26    1
    49    37    32   ar
    50    43    38   ar
    51     3     4    1
    52    45    47    1
    53    45    48    1
