@<TRIPOS>MOLECULE
*****
 42 46 0 0 0
SMALL
GASTEIGER

@<TRIPOS>ATOM
      1 C         141.3681  139.4269  159.5991 C.3     1  UNL1        0.0765
      2 C         140.9111  140.4103  158.5628 C.3     1  UNL1        0.0246
      3 C         141.1364  140.1253  157.1075 C.3     1  UNL1        0.0277
      4 C         141.8188  138.8568  156.6885 C.ar    1  UNL1       -0.0258
      5 C         142.0441  138.5718  155.2331 C.ar    1  UNL1       -0.0014
      6 C         142.7265  137.3034  154.8142 C.ar    1  UNL1        0.0371
      7 C         143.1835  136.3200  155.8506 C.ar    1  UNL1        0.1450
      8 C         142.9582  136.6051  157.3059 C.ar    1  UNL1        0.0330
      9 C         142.2758  137.8735  157.7249 C.ar    1  UNL1       -0.0215
     10 C         142.0505  138.1585  159.1802 C.3     1  UNL1        0.0457
     11 C         139.8362  139.3500  161.6961 C.2     1  UNL1        0.2458
     12 O         138.7548  138.7031  160.8824 O.2     1  UNL1       -0.2701
     13 N         141.1428  139.7119  161.0545 N.am    1  UNL1       -0.3021
     14 H         141.8525  140.1365  161.5886 H       1  UNL1        0.1497
     15 C         139.8539  141.2163  165.1985 C.ar    1  UNL1       -0.0063
     16 C         140.0793  140.9314  163.7432 C.ar    1  UNL1        0.0016
     17 C         139.6109  139.6350  163.1515 C.ar    1  UNL1        0.0530
     18 C         138.9171  138.6237  164.0152 C.ar    1  UNL1        0.0083
     19 C         138.6918  138.9086  165.4705 C.ar    1  UNL1        0.0713
     20 C         139.1602  140.2049  166.0621 C.ar    1  UNL1        0.0009
     21 C         137.9981  137.8973  166.3341 C.3     1  UNL1        0.4186
     22 F         137.3044  136.8859  167.1978 F       1  UNL1       -0.1659
     23 F         137.3433  139.0048  167.1052 F       1  UNL1       -0.1659
     24 F         138.6529  136.7897  165.5631 F       1  UNL1       -0.1659
     25 C         140.3224  142.5127  165.7902 C.3     1  UNL1        0.0956
     26 N         140.7095  143.6503  164.8925 N.3     1  UNL1       -0.2937
     27 H         141.4865  144.1315  165.3455 H       1  UNL1        0.1236
     28 C         138.3642  144.7200  165.2166 C.3     1  UNL1        0.0185
     29 C         139.6998  144.7001  164.5343 C.3     1  UNL1        0.0689
     30 O         143.8658  135.0516  155.4317 O.3     1  UNL1       -0.4537
     31 C         143.1026  133.7604  155.4124 C.ar    1  UNL1        0.1455
     32 C         141.8993  133.6136  154.5290 C.ar    1  UNL1        0.0579
     33 C         141.1360  132.3224  154.5097 C.ar    1  UNL1        0.1034
     34 N         141.5761  131.1781  155.3740 N.ar    1  UNL1       -0.2291
     35 C         142.7794  131.3250  156.2575 C.ar    1  UNL1        0.1330
     36 C         143.5426  132.6161  156.2767 C.ar    1  UNL1        0.0445
     37 C         144.7459  132.7630  157.1602 C.3     1  UNL1        0.0419
     38 C         145.1860  131.6187  158.0245 C.3     1  UNL1        0.0903
     39 C         144.4227  130.3275  158.0052 C.2     1  UNL1        0.2275
     40 O         144.8628  129.1832  158.8695 O.2     1  UNL1       -0.2747
     41 N         143.2195  130.1807  157.1218 N.am    1  UNL1       -0.2695
     42 H         142.7185  129.3332  157.1092 H       1  UNL1        0.1562
@<TRIPOS>BOND
     1    28    29    1
     2    29    26    1
     3    26    25    1
     4    25    15    1
     5    15    16   ar
     6    16    17   ar
     7    17    11    1
     8    11    12    2
     9    11    13   am
    10     1    13    1
    11     1     2    1
    12     2     3    1
    13     3     4    1
    14     4     5   ar
    15     5     6   ar
    16     6     7   ar
    17     7    30    1
    18    30    31    1
    19    31    32   ar
    20    32    33   ar
    21    33    34   ar
    22    34    35   ar
    23    35    36   ar
    24    36    37    1
    25    37    38    1
    26    38    39    1
    27    39    40    2
    28    39    41   am
    29     7     8   ar
    30     8     9   ar
    31     9    10    1
    32    17    18   ar
    33    18    19   ar
    34    19    21    1
    35    21    22    1
    36    21    23    1
    37    21    24    1
    38    19    20   ar
    39    20    15   ar
    40    10     1    1
    41     9     4   ar
    42    36    31   ar
    43    41    35    1
    44    26    27    1
    45    13    14    1
    46    41    42    1
@<TRIPOS>MOLECULE
*****
 42 46 0 0 0
SMALL
GASTEIGER

@<TRIPOS>ATOM
      1 C         139.3826  141.9028  160.4941 C.3     1  UNL1        0.0765
      2 C         139.9021  143.2504  160.0893 C.3     1  UNL1        0.0246
      3 C         139.6550  143.7637  158.7017 C.3     1  UNL1        0.0277
      4 C         138.8884  142.9293  157.7189 C.ar    1  UNL1       -0.0258
      5 C         138.6413  143.4426  156.3312 C.ar    1  UNL1       -0.0014
      6 C         137.8747  142.6082  155.3483 C.ar    1  UNL1        0.0371
      7 C         137.3552  141.2604  155.7531 C.ar    1  UNL1        0.1450
      8 C         137.6023  140.7472  157.1407 C.ar    1  UNL1        0.0330
      9 C         138.3689  141.5816  158.1236 C.ar    1  UNL1       -0.0215
     10 C         138.6160  141.0683  159.5112 C.3     1  UNL1        0.0457
     11 C         138.5978  141.5923  162.9512 C.2     1  UNL1        0.2458
     12 O         137.3188  142.3085  162.6332 O.2     1  UNL1       -0.2701
     13 N         139.6297  141.3894  161.8817 N.am    1  UNL1       -0.3021
     14 H         140.4692  140.9194  162.0905 H       1  UNL1        0.1497
     15 C         139.9222  141.3662  166.6855 C.ar    1  UNL1       -0.0063
     16 C         139.6752  141.8795  165.2979 C.ar    1  UNL1        0.0016
     17 C         138.8449  141.0790  164.3389 C.ar    1  UNL1        0.0530
     18 C         138.2617  139.7651  164.7675 C.ar    1  UNL1        0.0083
     19 C         138.5088  139.2518  166.1550 C.ar    1  UNL1        0.0713
     20 C         139.3390  140.0523  167.1140 C.ar    1  UNL1        0.0009
     21 C         137.9256  137.9379  166.5836 C.3     1  UNL1        0.4186
     22 F         137.3424  136.6241  167.0121 F       1  UNL1       -0.1659
     23 F         138.6050  137.2603  165.4306 F       1  UNL1       -0.1659
     24 F         137.2462  138.6155  167.7365 F       1  UNL1       -0.1659
     25 C         140.7525  142.1667  167.6446 C.3     1  UNL1        0.0956
     26 N         140.9529  141.6809  169.0496 N.3     1  UNL1       -0.2937
     27 H         140.2791  140.9302  169.2004 H       1  UNL1        0.1236
     28 C         140.3442  144.0382  169.9565 C.3     1  UNL1        0.0185
     29 C         140.8062  142.6321  170.2001 C.3     1  UNL1        0.0689
     30 O         136.5886  140.4260  154.7702 O.3     1  UNL1       -0.4537
     31 C         135.3353  140.9643  154.1461 C.ar    1  UNL1        0.1455
     32 C         135.3978  141.6621  152.8198 C.ar    1  UNL1        0.0579
     33 C         134.1445  142.2004  152.1957 C.ar    1  UNL1        0.1034
     34 N         132.8287  142.0410  152.8980 N.ar    1  UNL1       -0.2291
     35 C         132.7662  141.3432  154.2244 C.ar    1  UNL1        0.1330
     36 C         134.0195  140.8049  154.8484 C.ar    1  UNL1        0.0445
     37 C         133.9570  140.1071  156.1748 C.3     1  UNL1        0.0419
     38 C         132.6412  139.9477  156.8771 C.3     1  UNL1        0.0903
     39 C         131.3878  140.4861  156.2530 C.2     1  UNL1        0.2275
     40 O         130.0720  140.3266  156.9553 O.2     1  UNL1       -0.2747
     41 N         131.4504  141.1838  154.9267 N.am    1  UNL1       -0.2695
     42 H         130.6278  141.5371  154.5171 H       1  UNL1        0.1562
@<TRIPOS>BOND
     1    28    29    1
     2    29    26    1
     3    26    25    1
     4    25    15    1
     5    15    16   ar
     6    16    17   ar
     7    17    11    1
     8    11    12    2
     9    11    13   am
    10     1    13    1
    11     1     2    1
    12     2     3    1
    13     3     4    1
    14     4     5   ar
    15     5     6   ar
    16     6     7   ar
    17     7    30    1
    18    30    31    1
    19    31    32   ar
    20    32    33   ar
    21    33    34   ar
    22    34    35   ar
    23    35    36   ar
    24    36    37    1
    25    37    38    1
    26    38    39    1
    27    39    40    2
    28    39    41   am
    29     7     8   ar
    30     8     9   ar
    31     9    10    1
    32    17    18   ar
    33    18    19   ar
    34    19    21    1
    35    21    22    1
    36    21    23    1
    37    21    24    1
    38    19    20   ar
    39    20    15   ar
    40    10     1    1
    41     9     4   ar
    42    36    31   ar
    43    41    35    1
    44    26    27    1
    45    13    14    1
    46    41    42    1
@<TRIPOS>MOLECULE
*****
 42 46 0 0 0
SMALL
GASTEIGER

@<TRIPOS>ATOM
      1 C         142.3712  143.0647  159.5977 C.3     1  UNL1        0.0765
      2 C         143.7469  142.6560  159.1615 C.3     1  UNL1        0.0246
      3 C         144.7772  142.2796  160.1846 C.3     1  UNL1        0.0277
      4 C         144.4318  142.3121  161.6439 C.ar    1  UNL1       -0.0258
      5 C         145.4622  141.9357  162.6670 C.ar    1  UNL1       -0.0014
      6 C         145.1169  141.9681  164.1264 C.ar    1  UNL1        0.0371
      7 C         143.7411  142.3769  164.5626 C.ar    1  UNL1        0.1450
      8 C         142.7108  142.7532  163.5395 C.ar    1  UNL1        0.0330
      9 C         143.0561  142.7208  162.0802 C.ar    1  UNL1       -0.0215
     10 C         142.0258  143.0971  161.0571 C.3     1  UNL1        0.0457
     11 C         141.2860  144.8437  158.0461 C.2     1  UNL1        0.2458
     12 O         142.2617  145.8702  158.5406 O.2     1  UNL1       -0.2701
     13 N         141.3407  143.4410  158.5746 N.am    1  UNL1       -0.3021
     14 H         140.7004  142.7674  158.2500 H       1  UNL1        0.1497
     15 C         139.3218  146.9127  155.2872 C.ar    1  UNL1       -0.0063
     16 C         140.3522  146.5364  156.3103 C.ar    1  UNL1        0.0016
     17 C         140.2556  145.2201  157.0230 C.ar    1  UNL1        0.0530
     18 C         139.1286  144.2801  156.7126 C.ar    1  UNL1        0.0083
     19 C         138.0982  144.6564  155.6896 C.ar    1  UNL1        0.0713
     20 C         138.1948  145.9726  154.9769 C.ar    1  UNL1        0.0009
     21 C         136.9713  143.7163  155.3792 C.3     1  UNL1        0.4186
     22 F         135.8443  142.7763  155.0689 F       1  UNL1       -0.1659
     23 F         137.2091  143.0028  156.6770 F       1  UNL1       -0.1659
     24 F         136.7335  144.4299  154.0815 F       1  UNL1       -0.1659
     25 C         139.4184  148.2290  154.5744 C.3     1  UNL1        0.0956
     26 N         139.5951  149.4954  155.3587 N.3     1  UNL1       -0.2937
     27 H         140.3172  149.3118  156.0555 H       1  UNL1        0.1236
     28 C         138.1579  149.7050  157.5129 C.3     1  UNL1        0.0185
     29 C         138.4300  150.0936  156.0898 C.3     1  UNL1        0.0689
     30 O         143.3957  142.4093  166.0219 O.3     1  UNL1       -0.4537
     31 C         142.2731  141.5636  166.5459 C.ar    1  UNL1        0.1455
     32 C         141.5895  140.5808  165.6422 C.ar    1  UNL1        0.0579
     33 C         140.4669  139.7351  166.1662 C.ar    1  UNL1        0.1034
     34 N         140.0279  139.8721  167.5940 N.ar    1  UNL1       -0.2291
     35 C         140.7116  140.8550  168.4977 C.ar    1  UNL1        0.1330
     36 C         141.8341  141.7007  167.9737 C.ar    1  UNL1        0.0445
     37 C         142.5178  142.6835  168.8775 C.3     1  UNL1        0.0419
     38 C         142.0788  142.8206  170.3052 C.3     1  UNL1        0.0903
     39 C         140.9562  141.9749  170.8292 C.2     1  UNL1        0.2275
     40 O         140.5172  142.1120  172.2570 O.2     1  UNL1       -0.2747
     41 N         140.2726  140.9921  169.9255 N.am    1  UNL1       -0.2695
     42 H         139.5358  140.4370  170.2694 H       1  UNL1        0.1562
@<TRIPOS>BOND
     1    28    29    1
     2    29    26    1
     3    26    25    1
     4    25    15    1
     5    15    16   ar
     6    16    17   ar
     7    17    11    1
     8    11    12    2
     9    11    13   am
    10     1    13    1
    11     1     2    1
    12     2     3    1
    13     3     4    1
    14     4     5   ar
    15     5     6   ar
    16     6     7   ar
    17     7    30    1
    18    30    31    1
    19    31    32   ar
    20    32    33   ar
    21    33    34   ar
    22    34    35   ar
    23    35    36   ar
    24    36    37    1
    25    37    38    1
    26    38    39    1
    27    39    40    2
    28    39    41   am
    29     7     8   ar
    30     8     9   ar
    31     9    10    1
    32    17    18   ar
    33    18    19   ar
    34    19    21    1
    35    21    22    1
    36    21    23    1
    37    21    24    1
    38    19    20   ar
    39    20    15   ar
    40    10     1    1
    41     9     4   ar
    42    36    31   ar
    43    41    35    1
    44    26    27    1
    45    13    14    1
    46    41    42    1
@<TRIPOS>MOLECULE
*****
 42 46 0 0 0
SMALL
GASTEIGER

@<TRIPOS>ATOM
      1 C         141.0532  145.0258  160.3456 C.3     1  UNL1        0.0765
      2 C         140.0836  146.0191  160.9140 C.3     1  UNL1        0.0246
      3 C         139.5033  145.8033  162.2803 C.3     1  UNL1        0.0277
      4 C         139.8927  144.5942  163.0781 C.ar    1  UNL1       -0.0258
      5 C         139.3124  144.3785  164.4444 C.ar    1  UNL1       -0.0014
      6 C         139.7017  143.1694  165.2422 C.ar    1  UNL1        0.0371
      7 C         140.6713  142.1760  164.6737 C.ar    1  UNL1        0.1450
      8 C         141.2516  142.3918  163.3075 C.ar    1  UNL1        0.0330
      9 C         140.8623  143.6009  162.5097 C.ar    1  UNL1       -0.0215
     10 C         141.4425  143.8167  161.1434 C.3     1  UNL1        0.0457
     11 C         141.0540  144.5239  157.7964 C.2     1  UNL1        0.2458
     12 O         139.8942  143.5905  157.9798 O.2     1  UNL1       -0.2701
     13 N         141.6335  145.2415  158.9793 N.am    1  UNL1       -0.3021
     14 H         142.3947  145.8542  158.8589 H       1  UNL1        0.1497
     15 C         143.3982  144.1502  154.6160 C.ar    1  UNL1       -0.0063
     16 C         142.8179  143.9345  155.9823 C.ar    1  UNL1        0.0016
     17 C         141.6343  144.7397  156.4301 C.ar    1  UNL1        0.0530
     18 C         141.0309  145.7607  155.5117 C.ar    1  UNL1        0.0083
     19 C         141.6112  145.9764  154.1454 C.ar    1  UNL1        0.0713
     20 C         142.7948  145.1712  153.6976 C.ar    1  UNL1        0.0009
     21 C         141.0078  146.9974  153.2270 C.3     1  UNL1        0.4186
     22 F         140.4044  148.0184  152.3086 F       1  UNL1       -0.1659
     23 F         139.9276  147.2641  154.2331 F       1  UNL1       -0.1659
     24 F         142.0879  146.7308  152.2209 F       1  UNL1       -0.1659
     25 C         144.5819  143.3450  154.1681 C.3     1  UNL1        0.0956
     26 N         145.7572  143.1668  155.0829 N.3     1  UNL1       -0.2937
     27 H         146.5616  143.5824  154.6132 H       1  UNL1        0.1236
     28 C         145.6926  140.5909  154.7505 C.3     1  UNL1        0.0185
     29 C         146.1706  141.7907  155.5134 C.3     1  UNL1        0.0689
     30 O         141.0607  140.9669  165.4715 O.3     1  UNL1       -0.4537
     31 C         140.1180  140.4092  166.4964 C.ar    1  UNL1        0.1455
     32 C         139.0642  139.4229  166.0881 C.ar    1  UNL1        0.0579
     33 C         138.1215  138.8652  167.1130 C.ar    1  UNL1        0.1034
     34 N         138.2326  139.2938  168.5462 N.ar    1  UNL1       -0.2291
     35 C         139.2865  140.2801  168.9544 C.ar    1  UNL1        0.1330
     36 C         140.2291  140.8378  167.9296 C.ar    1  UNL1        0.0445
     37 C         141.2829  141.8242  168.3378 C.3     1  UNL1        0.0419
     38 C         141.3940  142.2528  169.7710 C.3     1  UNL1        0.0903
     39 C         140.4513  141.6951  170.7959 C.2     1  UNL1        0.2275
     40 O         140.5624  142.1237  172.2290 O.2     1  UNL1       -0.2747
     41 N         139.3976  140.7088  170.3876 N.am    1  UNL1       -0.2695
     42 H         138.7789  140.3427  171.0602 H       1  UNL1        0.1562
@<TRIPOS>BOND
     1    28    29    1
     2    29    26    1
     3    26    25    1
     4    25    15    1
     5    15    16   ar
     6    16    17   ar
     7    17    11    1
     8    11    12    2
     9    11    13   am
    10     1    13    1
    11     1     2    1
    12     2     3    1
    13     3     4    1
    14     4     5   ar
    15     5     6   ar
    16     6     7   ar
    17     7    30    1
    18    30    31    1
    19    31    32   ar
    20    32    33   ar
    21    33    34   ar
    22    34    35   ar
    23    35    36   ar
    24    36    37    1
    25    37    38    1
    26    38    39    1
    27    39    40    2
    28    39    41   am
    29     7     8   ar
    30     8     9   ar
    31     9    10    1
    32    17    18   ar
    33    18    19   ar
    34    19    21    1
    35    21    22    1
    36    21    23    1
    37    21    24    1
    38    19    20   ar
    39    20    15   ar
    40    10     1    1
    41     9     4   ar
    42    36    31   ar
    43    41    35    1
    44    26    27    1
    45    13    14    1
    46    41    42    1
@<TRIPOS>MOLECULE
*****
 42 46 0 0 0
SMALL
GASTEIGER

@<TRIPOS>ATOM
      1 C         141.0909  145.0818  160.6520 C.3     1  UNL1        0.0765
      2 C         139.8815  145.8856  161.0277 C.3     1  UNL1        0.0246
      3 C         139.2967  145.7623  162.4035 C.3     1  UNL1        0.0277
      4 C         139.9214  144.8351  163.4036 C.ar    1  UNL1       -0.0258
      5 C         139.3365  144.7118  164.7794 C.ar    1  UNL1       -0.0014
      6 C         139.9612  143.7847  165.7795 C.ar    1  UNL1        0.0371
      7 C         141.1707  142.9809  165.4038 C.ar    1  UNL1        0.1450
      8 C         141.7555  143.1042  164.0280 C.ar    1  UNL1        0.0330
      9 C         141.1308  144.0314  163.0279 C.ar    1  UNL1       -0.0215
     10 C         141.7156  144.1547  161.6521 C.3     1  UNL1        0.0457
     11 C         141.1217  144.3846  158.1494 C.2     1  UNL1        0.2458
     12 O         139.9828  143.4408  158.3984 O.2     1  UNL1       -0.2701
     13 N         141.6757  145.2052  159.2762 N.am    1  UNL1       -0.3021
     14 H         142.4232  145.8247  159.1128 H       1  UNL1        0.1497
     15 C         143.4291  143.7457  154.9844 C.ar    1  UNL1       -0.0063
     16 C         142.8443  143.6223  156.3601 C.ar    1  UNL1        0.0016
     17 C         141.7065  144.5080  156.7736 C.ar    1  UNL1        0.0530
     18 C         141.1535  145.5169  155.8113 C.ar    1  UNL1        0.0083
     19 C         141.7382  145.6403  154.4355 C.ar    1  UNL1        0.0713
     20 C         142.8760  144.7547  154.0221 C.ar    1  UNL1        0.0009
     21 C         141.1852  146.6493  153.4732 C.3     1  UNL1        0.4186
     22 F         140.6321  147.6583  152.5108 F       1  UNL1       -0.1659
     23 F         142.4874  146.6531  152.7288 F       1  UNL1       -0.1659
     24 F         139.8829  146.6455  154.2175 F       1  UNL1       -0.1659
     25 C         144.5670  142.8600  154.5709 C.3     1  UNL1        0.0956
     26 N         145.9823  143.3086  154.7841 N.3     1  UNL1       -0.2937
     27 H         146.0451  144.2633  154.4304 H       1  UNL1        0.1236
     28 C         148.3529  143.2615  153.7221 C.3     1  UNL1        0.0185
     29 C         147.1134  142.5422  154.1650 C.3     1  UNL1        0.0689
     30 O         141.7953  142.0537  166.4039 O.3     1  UNL1       -0.4537
     31 C         141.0646  141.7122  167.6686 C.ar    1  UNL1        0.1455
     32 C         141.4398  142.3838  168.9563 C.ar    1  UNL1        0.0579
     33 C         140.7090  142.0423  170.2210 C.ar    1  UNL1        0.1034
     34 N         139.6031  141.0292  170.1980 N.ar    1  UNL1       -0.2291
     35 C         139.2279  140.3577  168.9102 C.ar    1  UNL1        0.1330
     36 C         139.9586  140.6992  167.6456 C.ar    1  UNL1        0.0445
     37 C         139.5834  140.0276  166.3578 C.3     1  UNL1        0.0419
     38 C         138.4775  139.0145  166.3348 C.3     1  UNL1        0.0903
     39 C         137.7467  138.6730  167.5995 C.2     1  UNL1        0.2275
     40 O         136.6408  137.6599  167.5764 O.2     1  UNL1       -0.2747
     41 N         138.1219  139.3446  168.8872 N.am    1  UNL1       -0.2695
     42 H         137.6423  139.1204  169.7172 H       1  UNL1        0.1562
@<TRIPOS>BOND
     1    28    29    1
     2    29    26    1
     3    26    25    1
     4    25    15    1
     5    15    16   ar
     6    16    17   ar
     7    17    11    1
     8    11    12    2
     9    11    13   am
    10     1    13    1
    11     1     2    1
    12     2     3    1
    13     3     4    1
    14     4     5   ar
    15     5     6   ar
    16     6     7   ar
    17     7    30    1
    18    30    31    1
    19    31    32   ar
    20    32    33   ar
    21    33    34   ar
    22    34    35   ar
    23    35    36   ar
    24    36    37    1
    25    37    38    1
    26    38    39    1
    27    39    40    2
    28    39    41   am
    29     7     8   ar
    30     8     9   ar
    31     9    10    1
    32    17    18   ar
    33    18    19   ar
    34    19    21    1
    35    21    22    1
    36    21    23    1
    37    21    24    1
    38    19    20   ar
    39    20    15   ar
    40    10     1    1
    41     9     4   ar
    42    36    31   ar
    43    41    35    1
    44    26    27    1
    45    13    14    1
    46    41    42    1
@<TRIPOS>MOLECULE
*****
 42 46 0 0 0
SMALL
GASTEIGER

@<TRIPOS>ATOM
      1 C         142.6890  138.7282  160.3638 C.3     1  UNL1        0.0765
      2 C         144.1189  139.1385  160.5560 C.3     1  UNL1        0.0246
      3 C         144.4907  140.0564  161.6825 C.3     1  UNL1        0.0277
      4 C         143.4327  140.5640  162.6168 C.ar    1  UNL1       -0.0258
      5 C         143.8047  141.4820  163.7434 C.ar    1  UNL1       -0.0014
      6 C         142.7467  141.9896  164.6777 C.ar    1  UNL1        0.0371
      7 C         141.3167  141.5792  164.4855 C.ar    1  UNL1        0.1450
      8 C         140.9448  140.6613  163.3590 C.ar    1  UNL1        0.0330
      9 C         142.0028  140.1537  162.4247 C.ar    1  UNL1       -0.0215
     10 C         141.6309  139.2358  161.2981 C.3     1  UNL1        0.0457
     11 C         141.7624  138.3737  157.9626 C.2     1  UNL1        0.2458
     12 O         141.5797  139.8551  157.8144 O.2     1  UNL1       -0.2701
     13 N         142.3170  137.8102  159.2373 N.am    1  UNL1       -0.3021
     14 H         142.4369  136.8379  159.3345 H       1  UNL1        0.1497
     15 C         139.8074  136.8286  154.8738 C.ar    1  UNL1       -0.0063
     16 C         140.1793  137.7466  156.0003 C.ar    1  UNL1        0.0016
     17 C         141.3904  137.4557  156.8360 C.ar    1  UNL1        0.0530
     18 C         142.2297  136.2470  156.5453 C.ar    1  UNL1        0.0083
     19 C         141.8578  135.3290  155.4188 C.ar    1  UNL1        0.0713
     20 C         140.6466  135.6198  154.5831 C.ar    1  UNL1        0.0009
     21 C         142.6970  134.1202  155.1280 C.3     1  UNL1        0.4186
     22 F         143.5363  132.9115  154.8373 F       1  UNL1       -0.1659
     23 F         142.7187  134.4852  153.6733 F       1  UNL1       -0.1659
     24 F         142.6753  133.7553  156.5828 F       1  UNL1       -0.1659
     25 C         138.5962  137.1194  154.0380 C.3     1  UNL1        0.0956
     26 N         137.3082  137.5163  154.6965 N.3     1  UNL1       -0.2937
     27 H         136.6629  136.7358  154.5755 H       1  UNL1        0.1236
     28 C         136.5950  139.9813  155.1029 C.3     1  UNL1        0.0185
     29 C         136.5845  138.7504  154.2457 C.3     1  UNL1        0.0689
     30 O         140.2587  142.0868  165.4198 O.3     1  UNL1       -0.4537
     31 C         139.6874  141.1802  166.4695 C.ar    1  UNL1        0.1455
     32 C         138.8661  139.9913  166.0674 C.ar    1  UNL1        0.0579
     33 C         138.2948  139.0847  167.1171 C.ar    1  UNL1        0.1034
     34 N         138.5448  139.3671  168.5688 N.ar    1  UNL1       -0.2291
     35 C         139.3662  140.5562  168.9710 C.ar    1  UNL1        0.1330
     36 C         139.9374  141.4627  167.9213 C.ar    1  UNL1        0.0445
     37 C         140.7588  142.6517  168.3234 C.3     1  UNL1        0.0419
     38 C         141.0089  142.9342  169.7752 C.3     1  UNL1        0.0903
     39 C         140.4375  142.0276  170.8249 C.2     1  UNL1        0.2275
     40 O         140.6876  142.3100  172.2767 O.2     1  UNL1       -0.2747
     41 N         139.6162  140.8386  170.4227 N.am    1  UNL1       -0.2695
     42 H         139.2413  140.2436  171.1117 H       1  UNL1        0.1562
@<TRIPOS>BOND
     1    28    29    1
     2    29    26    1
     3    26    25    1
     4    25    15    1
     5    15    16   ar
     6    16    17   ar
     7    17    11    1
     8    11    12    2
     9    11    13   am
    10     1    13    1
    11     1     2    1
    12     2     3    1
    13     3     4    1
    14     4     5   ar
    15     5     6   ar
    16     6     7   ar
    17     7    30    1
    18    30    31    1
    19    31    32   ar
    20    32    33   ar
    21    33    34   ar
    22    34    35   ar
    23    35    36   ar
    24    36    37    1
    25    37    38    1
    26    38    39    1
    27    39    40    2
    28    39    41   am
    29     7     8   ar
    30     8     9   ar
    31     9    10    1
    32    17    18   ar
    33    18    19   ar
    34    19    21    1
    35    21    22    1
    36    21    23    1
    37    21    24    1
    38    19    20   ar
    39    20    15   ar
    40    10     1    1
    41     9     4   ar
    42    36    31   ar
    43    41    35    1
    44    26    27    1
    45    13    14    1
    46    41    42    1
@<TRIPOS>MOLECULE
*****
 42 46 0 0 0
SMALL
GASTEIGER

@<TRIPOS>ATOM
      1 C         139.9317  143.2394  162.0546 C.3     1  UNL1        0.0765
      2 C         139.9507  144.7392  162.0363 C.3     1  UNL1        0.0246
      3 C         140.3555  145.4689  160.7899 C.3     1  UNL1        0.0277
      4 C         140.7413  144.6989  159.5617 C.ar    1  UNL1       -0.0258
      5 C         141.1461  145.4287  158.3153 C.ar    1  UNL1       -0.0014
      6 C         141.5319  144.6587  157.0872 C.ar    1  UNL1        0.0371
      7 C         141.5128  143.1589  157.1055 C.ar    1  UNL1        0.1450
      8 C         141.1080  142.4292  158.3519 C.ar    1  UNL1        0.0330
      9 C         140.7222  143.1992  159.5800 C.ar    1  UNL1       -0.0215
     10 C         140.3174  142.4694  160.8264 C.3     1  UNL1        0.0457
     11 C         140.5331  142.2621  164.3855 C.2     1  UNL1        0.2458
     12 O         141.9442  142.7443  164.2235 O.2     1  UNL1       -0.2701
     13 N         139.5268  142.5096  163.3010 N.am    1  UNL1       -0.3021
     14 H         138.6007  142.1931  163.4073 H       1  UNL1        0.1497
     15 C         140.0939  141.3529  168.2235 C.ar    1  UNL1       -0.0063
     16 C         140.4987  142.0827  166.9771 C.ar    1  UNL1        0.0016
     17 C         140.1283  141.5322  165.6319 C.ar    1  UNL1        0.0530
     18 C         139.3530  140.2519  165.5330 C.ar    1  UNL1        0.0083
     19 C         138.9482  139.5221  166.7794 C.ar    1  UNL1        0.0713
     20 C         139.3186  140.0726  168.1246 C.ar    1  UNL1        0.0009
     21 C         138.1730  138.2418  166.6805 C.3     1  UNL1        0.4186
     22 F         137.3977  136.9615  166.5816 F       1  UNL1       -0.1659
     23 F         139.0427  137.8033  165.5398 F       1  UNL1       -0.1659
     24 F         137.3032  138.6803  167.8212 F       1  UNL1       -0.1659
     25 C         140.4643  141.9034  169.5688 C.3     1  UNL1        0.0956
     26 N         141.3489  143.1108  169.6674 N.3     1  UNL1       -0.2937
     27 H         141.5394  143.4150  168.7127 H       1  UNL1        0.1236
     28 C         143.8314  142.3449  169.6846 C.3     1  UNL1        0.0185
     29 C         142.6739  143.0149  170.3638 C.3     1  UNL1        0.0689
     30 O         141.8986  142.3889  155.8774 O.3     1  UNL1       -0.4537
     31 C         143.2835  141.8273  155.7485 C.ar    1  UNL1        0.1455
     32 C         144.4643  142.7502  155.6863 C.ar    1  UNL1        0.0579
     33 C         145.8493  142.1885  155.5574 C.ar    1  UNL1        0.1034
     34 N         146.0534  140.7040  155.4907 N.ar    1  UNL1       -0.2291
     35 C         144.8725  139.7811  155.5530 C.ar    1  UNL1        0.1330
     36 C         143.4876  140.3427  155.6818 C.ar    1  UNL1        0.0445
     37 C         142.3067  139.4198  155.7440 C.3     1  UNL1        0.0419
     38 C         142.5108  137.9352  155.6774 C.3     1  UNL1        0.0903
     39 C         143.8957  137.3736  155.5485 C.2     1  UNL1        0.2275
     40 O         144.0998  135.8890  155.4818 O.2     1  UNL1       -0.2747
     41 N         145.0765  138.2965  155.4863 N.am    1  UNL1       -0.2695
     42 H         145.9855  137.9279  155.4017 H       1  UNL1        0.1562
@<TRIPOS>BOND
     1    28    29    1
     2    29    26    1
     3    26    25    1
     4    25    15    1
     5    15    16   ar
     6    16    17   ar
     7    17    11    1
     8    11    12    2
     9    11    13   am
    10     1    13    1
    11     1     2    1
    12     2     3    1
    13     3     4    1
    14     4     5   ar
    15     5     6   ar
    16     6     7   ar
    17     7    30    1
    18    30    31    1
    19    31    32   ar
    20    32    33   ar
    21    33    34   ar
    22    34    35   ar
    23    35    36   ar
    24    36    37    1
    25    37    38    1
    26    38    39    1
    27    39    40    2
    28    39    41   am
    29     7     8   ar
    30     8     9   ar
    31     9    10    1
    32    17    18   ar
    33    18    19   ar
    34    19    21    1
    35    21    22    1
    36    21    23    1
    37    21    24    1
    38    19    20   ar
    39    20    15   ar
    40    10     1    1
    41     9     4   ar
    42    36    31   ar
    43    41    35    1
    44    26    27    1
    45    13    14    1
    46    41    42    1
@<TRIPOS>MOLECULE
*****
 42 46 0 0 0
SMALL
GASTEIGER

@<TRIPOS>ATOM
      1 C         142.9283  140.9918  162.0295 C.3     1  UNL1        0.0765
      2 C         143.6473  142.3006  161.8878 C.3     1  UNL1        0.0246
      3 C         144.2297  142.6967  160.5635 C.3     1  UNL1        0.0277
      4 C         144.0932  141.7841  159.3809 C.ar    1  UNL1       -0.0258
      5 C         144.6756  142.1803  158.0566 C.ar    1  UNL1       -0.0014
      6 C         144.5391  141.2677  156.8740 C.ar    1  UNL1        0.0371
      7 C         143.8200  139.9588  157.0158 C.ar    1  UNL1        0.1450
      8 C         143.2376  139.5627  158.3401 C.ar    1  UNL1        0.0330
      9 C         143.3742  140.4753  159.5227 C.ar    1  UNL1       -0.0215
     10 C         142.7918  140.0792  160.8470 C.3     1  UNL1        0.0457
     11 C         141.0532  141.2003  163.8158 C.2     1  UNL1        0.2458
     12 O         140.3430  142.2012  162.9533 O.2     1  UNL1       -0.2701
     13 N         142.3459  140.5956  163.3539 N.am    1  UNL1       -0.3021
     14 H         142.8120  139.9387  163.9199 H       1  UNL1        0.1497
     15 C         140.2198  141.1975  167.6959 C.ar    1  UNL1       -0.0063
     16 C         140.8022  141.5937  166.3716 C.ar    1  UNL1        0.0016
     17 C         140.4708  140.8041  165.1401 C.ar    1  UNL1        0.0530
     18 C         139.5569  139.6183  165.2329 C.ar    1  UNL1        0.0083
     19 C         138.9744  139.2220  166.5572 C.ar    1  UNL1        0.0713
     20 C         139.3059  140.0116  167.7886 C.ar    1  UNL1        0.0009
     21 C         138.0605  138.0362  166.6499 C.3     1  UNL1        0.4186
     22 F         137.1466  136.8504  166.7427 F       1  UNL1       -0.1659
     23 F         137.3293  138.6886  167.7856 F       1  UNL1       -0.1659
     24 F         138.7917  137.3839  165.5142 F       1  UNL1       -0.1659
     25 C         140.5512  141.9871  168.9275 C.3     1  UNL1        0.0956
     26 N         140.7084  141.2893  170.2460 N.3     1  UNL1       -0.2937
     27 H         140.5478  141.9892  170.9704 H       1  UNL1        0.1236
     28 C         142.3422  139.2919  169.9447 C.3     1  UNL1        0.0185
     29 C         142.0000  140.6053  170.5833 C.3     1  UNL1        0.0689
     30 O         143.6834  139.0462  155.8332 O.3     1  UNL1       -0.4537
     31 C         142.4113  138.2805  155.6198 C.ar    1  UNL1        0.1455
     32 C         141.1443  139.0098  155.2842 C.ar    1  UNL1        0.0579
     33 C         139.8722  138.2441  155.0707 C.ar    1  UNL1        0.1034
     34 N         139.8672  136.7491  155.1928 N.ar    1  UNL1       -0.2291
     35 C         141.1343  136.0198  155.5285 C.ar    1  UNL1        0.1330
     36 C         142.4063  136.7855  155.7419 C.ar    1  UNL1        0.0445
     37 C         143.6735  136.0562  156.0775 C.3     1  UNL1        0.0419
     38 C         143.6685  134.5612  156.1997 C.3     1  UNL1        0.0903
     39 C         142.3964  133.7955  155.9862 C.2     1  UNL1        0.2275
     40 O         142.3914  132.3005  156.1084 O.2     1  UNL1       -0.2747
     41 N         141.1294  134.5248  155.6506 N.am    1  UNL1       -0.2695
     42 H         140.2945  134.0222  155.5105 H       1  UNL1        0.1562
@<TRIPOS>BOND
     1    28    29    1
     2    29    26    1
     3    26    25    1
     4    25    15    1
     5    15    16   ar
     6    16    17   ar
     7    17    11    1
     8    11    12    2
     9    11    13   am
    10     1    13    1
    11     1     2    1
    12     2     3    1
    13     3     4    1
    14     4     5   ar
    15     5     6   ar
    16     6     7   ar
    17     7    30    1
    18    30    31    1
    19    31    32   ar
    20    32    33   ar
    21    33    34   ar
    22    34    35   ar
    23    35    36   ar
    24    36    37    1
    25    37    38    1
    26    38    39    1
    27    39    40    2
    28    39    41   am
    29     7     8   ar
    30     8     9   ar
    31     9    10    1
    32    17    18   ar
    33    18    19   ar
    34    19    21    1
    35    21    22    1
    36    21    23    1
    37    21    24    1
    38    19    20   ar
    39    20    15   ar
    40    10     1    1
    41     9     4   ar
    42    36    31   ar
    43    41    35    1
    44    26    27    1
    45    13    14    1
    46    41    42    1
@<TRIPOS>MOLECULE
*****
 42 46 0 0 0
SMALL
GASTEIGER

@<TRIPOS>ATOM
      1 C         142.7924  140.6760  159.3132 C.3     1  UNL1        0.0765
      2 C         143.8946  141.6677  159.0860 C.3     1  UNL1        0.0246
      3 C         144.2923  142.6111  160.1822 C.3     1  UNL1        0.0277
      4 C         143.5877  142.5629  161.5056 C.ar    1  UNL1       -0.0258
      5 C         143.9854  143.5064  162.6018 C.ar    1  UNL1       -0.0014
      6 C         143.2809  143.4582  163.9252 C.ar    1  UNL1        0.0371
      7 C         142.1787  142.4664  164.1523 C.ar    1  UNL1        0.1450
      8 C         141.7810  141.5229  163.0561 C.ar    1  UNL1        0.0330
      9 C         142.4855  141.5712  161.7327 C.ar    1  UNL1       -0.0215
     10 C         142.0879  140.6277  160.6365 C.3     1  UNL1        0.0457
     11 C         142.6742  138.2650  158.3523 C.2     1  UNL1        0.2458
     12 O         143.3513  137.7409  159.5839 O.2     1  UNL1       -0.2701
     13 N         142.3947  139.7324  158.2169 N.am    1  UNL1       -0.3021
     14 H         141.9503  140.0764  157.4086 H       1  UNL1        0.1497
     15 C         142.7416  135.1935  155.8401 C.ar    1  UNL1       -0.0063
     16 C         143.1393  136.1369  156.9363 C.ar    1  UNL1        0.0016
     17 C         142.2764  137.3214  157.2561 C.ar    1  UNL1        0.0530
     18 C         141.0158  137.5625  156.4797 C.ar    1  UNL1        0.0083
     19 C         140.6181  136.6191  155.3835 C.ar    1  UNL1        0.0713
     20 C         141.4810  135.4346  155.0637 C.ar    1  UNL1        0.0009
     21 C         139.3575  136.8601  154.6071 C.3     1  UNL1        0.4186
     22 F         138.0969  137.1012  153.8308 F       1  UNL1       -0.1659
     23 F         138.5603  136.7741  155.8748 F       1  UNL1       -0.1659
     24 F         140.1547  136.9462  153.3394 F       1  UNL1       -0.1659
     25 C         143.6045  134.0089  155.5202 C.3     1  UNL1        0.0956
     26 N         144.5267  133.4495  156.5626 N.3     1  UNL1       -0.2937
     27 H         145.4129  133.2537  156.0972 H       1  UNL1        0.1236
     28 C         142.9249  131.4337  156.9103 C.3     1  UNL1        0.0185
     29 C         144.1466  132.2062  157.3109 C.3     1  UNL1        0.0689
     30 O         141.4741  142.4181  165.4757 O.3     1  UNL1       -0.4537
     31 C         141.8740  141.3993  166.5015 C.ar    1  UNL1        0.1455
     32 C         142.6341  140.1748  166.0858 C.ar    1  UNL1        0.0579
     33 C         143.0339  139.1560  167.1117 C.ar    1  UNL1        0.1034
     34 N         142.6736  139.3618  168.5531 N.ar    1  UNL1       -0.2291
     35 C         141.9134  140.5863  168.9688 C.ar    1  UNL1        0.1330
     36 C         141.5136  141.6051  167.9430 C.ar    1  UNL1        0.0445
     37 C         140.7534  142.8296  168.3586 C.3     1  UNL1        0.0419
     38 C         140.3931  143.0354  169.8001 C.3     1  UNL1        0.0903
     39 C         140.7929  142.0166  170.8259 C.2     1  UNL1        0.2275
     40 O         140.4326  142.2223  172.2674 O.2     1  UNL1       -0.2747
     41 N         141.5531  140.7921  170.4102 N.am    1  UNL1       -0.2695
     42 H         141.8155  140.1234  171.0835 H       1  UNL1        0.1562
@<TRIPOS>BOND
     1    28    29    1
     2    29    26    1
     3    26    25    1
     4    25    15    1
     5    15    16   ar
     6    16    17   ar
     7    17    11    1
     8    11    12    2
     9    11    13   am
    10     1    13    1
    11     1     2    1
    12     2     3    1
    13     3     4    1
    14     4     5   ar
    15     5     6   ar
    16     6     7   ar
    17     7    30    1
    18    30    31    1
    19    31    32   ar
    20    32    33   ar
    21    33    34   ar
    22    34    35   ar
    23    35    36   ar
    24    36    37    1
    25    37    38    1
    26    38    39    1
    27    39    40    2
    28    39    41   am
    29     7     8   ar
    30     8     9   ar
    31     9    10    1
    32    17    18   ar
    33    18    19   ar
    34    19    21    1
    35    21    22    1
    36    21    23    1
    37    21    24    1
    38    19    20   ar
    39    20    15   ar
    40    10     1    1
    41     9     4   ar
    42    36    31   ar
    43    41    35    1
    44    26    27    1
    45    13    14    1
    46    41    42    1
