@<TRIPOS>MOLECULE
*****
 32 35 0 0 0
SMALL
GASTEIGER

@<TRIPOS>ATOM
      1 C         140.9900  138.4354  156.4414 C.3     1  UNL1        0.1020
      2 C         141.7625  137.5719  155.4888 C.3     1  UNL1        0.0643
      3 C         142.8778  136.7069  155.9964 C.3     1  UNL1        0.1368
      4 C         142.9284  136.3670  154.5363 C.3     1  UNL1        0.0437
      5 C         144.0108  135.7238  155.9969 C.3     1  UNL1        0.0437
      6 O         143.2207  136.7054  157.4567 O.3     1  UNL1       -0.4676
      7 C         142.4482  137.5689  158.4093 C.ar    1  UNL1        0.2219
      8 N         142.7910  137.5675  159.8696 N.ar    1  UNL1       -0.2119
      9 C         142.0185  138.4310  160.8222 C.ar    1  UNL1        0.0851
     10 C         140.9032  139.2960  160.3146 C.ar    1  UNL1        0.0177
     11 C         140.5603  139.2975  158.8543 C.ar    1  UNL1        0.0034
     12 C         141.3328  138.4339  157.9016 C.ar    1  UNL1        0.0488
     13 C         142.3614  138.4295  162.2826 C.ar    1  UNL1        0.0284
     14 C         141.5387  137.6257  163.2453 C.ar    1  UNL1        0.0032
     15 C         141.8816  137.6243  164.7056 C.ar    1  UNL1        0.0115
     16 C         143.0471  138.4267  165.2031 C.ar    1  UNL1        0.0585
     17 CL        143.3900  138.4253  166.6634 Cl      1  UNL1       -0.0822
     18 C         143.8698  139.2306  164.2404 C.ar    1  UNL1        0.0228
     19 C         143.5269  139.2320  162.7801 C.ar    1  UNL1        0.0599
     20 CL        144.3497  140.0359  161.8173 Cl      1  UNL1       -0.0822
     21 C         140.1306  140.1595  161.2673 C.ar    1  UNL1        0.0015
     22 C         140.6740  141.4962  161.6771 C.ar    1  UNL1        0.0009
     23 C         139.9015  142.3598  162.6298 C.ar    1  UNL1        0.0114
     24 C         138.5857  141.8866  163.1726 C.ar    1  UNL1        0.0577
     25 CL        137.8132  142.7502  164.1253 Cl      1  UNL1       -0.0822
     26 C         138.0423  140.5499  162.7627 C.ar    1  UNL1        0.0114
     27 C         138.8148  139.6864  161.8101 C.ar    1  UNL1        0.0009
     28 C         137.4522  139.5467  155.0274 C.3     1  UNL1        0.0946
     29 C         138.5676  138.6817  155.5351 C.2     1  UNL1        0.2232
     30 O         138.3759  137.1980  155.6441 O.2     1  UNL1       -0.2751
     31 N         139.8746  139.3004  155.9337 N.am    1  UNL1       -0.3019
     32 H         140.0003  140.2742  155.8622 H       1  UNL1        0.1497
@<TRIPOS>BOND
     1    28    29    1
     2    29    30    2
     3    29    31   am
     4     1    31    1
     5     1     2    1
     6     2     3    1
     7     3     4    1
     8     3     5    1
     9     3     6    1
    10     6     7    1
    11     7     8   ar
    12     8     9   ar
    13     9    13    1
    14    13    14   ar
    15    14    15   ar
    16    15    16   ar
    17    16    17    1
    18    16    18   ar
    19    18    19   ar
    20    19    20    1
    21     9    10   ar
    22    10    21    1
    23    21    22   ar
    24    22    23   ar
    25    23    24   ar
    26    24    25    1
    27    24    26   ar
    28    26    27   ar
    29    10    11   ar
    30    11    12   ar
    31    12     1    1
    32    12     7   ar
    33    19    13   ar
    34    27    21   ar
    35    31    32    1
@<TRIPOS>MOLECULE
*****
 32 35 0 0 0
SMALL
GASTEIGER

@<TRIPOS>ATOM
      1 C         142.9298  135.3912  155.9232 C.3     1  UNL1        0.1020
      2 C         142.4170  135.0129  154.5653 C.3     1  UNL1        0.0643
      3 C         141.2290  135.7234  153.9876 C.3     1  UNL1        0.1368
      4 C         141.5276  134.7658  152.8723 C.3     1  UNL1        0.0437
      5 C         140.1447  136.1013  153.0224 C.3     1  UNL1        0.0437
      6 O         140.5538  136.8122  154.7677 O.3     1  UNL1       -0.4676
      7 C         141.0666  137.1905  156.1255 C.ar    1  UNL1        0.2219
      8 N         140.3914  138.2794  156.9057 N.ar    1  UNL1       -0.2119
      9 C         140.9043  138.6577  158.2635 C.ar    1  UNL1        0.0851
     10 C         142.0923  137.9472  158.8413 C.ar    1  UNL1        0.0177
     11 C         142.7675  136.8584  158.0612 C.ar    1  UNL1        0.0034
     12 C         142.2547  136.4800  156.7033 C.ar    1  UNL1        0.0488
     13 C         140.2291  139.7466  159.0437 C.ar    1  UNL1        0.0284
     14 C         139.0608  139.4225  159.9269 C.ar    1  UNL1        0.0032
     15 C         138.3857  140.5114  160.7070 C.ar    1  UNL1        0.0115
     16 C         138.8789  141.9242  160.6039 C.ar    1  UNL1        0.0585
     17 CL        138.2037  143.0131  161.3841 Cl      1  UNL1       -0.0822
     18 C         140.0471  142.2483  159.7207 C.ar    1  UNL1        0.0228
     19 C         140.7223  141.1594  158.9406 C.ar    1  UNL1        0.0599
     20 CL        141.8906  141.4834  158.0573 Cl      1  UNL1       -0.0822
     21 C         142.6052  138.3256  160.1992 C.ar    1  UNL1        0.0015
     22 C         141.9930  137.7203  161.4276 C.ar    1  UNL1        0.0009
     23 C         142.5058  138.0986  162.7854 C.ar    1  UNL1        0.0114
     24 C         143.6307  139.0823  162.9150 C.ar    1  UNL1        0.0577
     25 CL        144.1436  139.4606  164.2729 Cl      1  UNL1       -0.0822
     26 C         144.2429  139.6876  161.6867 C.ar    1  UNL1        0.0114
     27 C         143.7301  139.3093  160.3288 C.ar    1  UNL1        0.0009
     28 C         145.1389  132.6186  157.7072 C.3     1  UNL1        0.0946
     29 C         143.9508  133.3291  157.1294 C.2     1  UNL1        0.2232
     30 O         142.5957  132.6878  157.1802 O.2     1  UNL1       -0.2751
     31 N         144.1179  134.6808  156.5009 N.am    1  UNL1       -0.3019
     32 H         145.0073  135.1016  156.4676 H       1  UNL1        0.1497
@<TRIPOS>BOND
     1    28    29    1
     2    29    30    2
     3    29    31   am
     4     1    31    1
     5     1     2    1
     6     2     3    1
     7     3     4    1
     8     3     5    1
     9     3     6    1
    10     6     7    1
    11     7     8   ar
    12     8     9   ar
    13     9    13    1
    14    13    14   ar
    15    14    15   ar
    16    15    16   ar
    17    16    17    1
    18    16    18   ar
    19    18    19   ar
    20    19    20    1
    21     9    10   ar
    22    10    21    1
    23    21    22   ar
    24    22    23   ar
    25    23    24   ar
    26    24    25    1
    27    24    26   ar
    28    26    27   ar
    29    10    11   ar
    30    11    12   ar
    31    12     1    1
    32    12     7   ar
    33    19    13   ar
    34    27    21   ar
    35    31    32    1
@<TRIPOS>MOLECULE
*****
 32 35 0 0 0
SMALL
GASTEIGER

@<TRIPOS>ATOM
      1 C         141.6529  138.9276  156.6437 C.3     1  UNL1        0.1020
      2 C         142.1457  137.8382  155.7380 C.3     1  UNL1        0.0643
      3 C         142.9062  136.6770  156.3064 C.3     1  UNL1        0.1368
      4 C         142.9020  136.3000  154.8546 C.3     1  UNL1        0.0437
      5 C         143.6653  135.3848  156.3706 C.3     1  UNL1        0.0437
      6 O         143.1741  136.6052  157.7805 O.3     1  UNL1       -0.4676
      7 C         142.6814  137.6946  158.6862 C.ar    1  UNL1        0.2219
      8 N         142.9492  137.6229  160.1604 N.ar    1  UNL1       -0.2119
      9 C         142.4565  138.7124  161.0661 C.ar    1  UNL1        0.0851
     10 C         141.6959  139.8736  160.4976 C.ar    1  UNL1        0.0177
     11 C         141.4280  139.9453  159.0235 C.ar    1  UNL1        0.0034
     12 C         141.9208  138.8559  158.1178 C.ar    1  UNL1        0.0488
     13 C         142.7243  138.6406  162.5403 C.ar    1  UNL1        0.0284
     14 C         143.9797  139.2371  163.1044 C.ar    1  UNL1        0.0032
     15 C         144.2474  139.1654  164.5785 C.ar    1  UNL1        0.0115
     16 C         143.2599  138.4971  165.4885 C.ar    1  UNL1        0.0585
     17 CL        143.5277  138.4254  166.9627 Cl      1  UNL1       -0.0822
     18 C         142.0045  137.9007  164.9245 C.ar    1  UNL1        0.0228
     19 C         141.7367  137.9724  163.4503 C.ar    1  UNL1        0.0599
     20 CL        140.4813  137.3759  162.8862 Cl      1  UNL1       -0.0822
     21 C         141.2032  140.9630  161.4034 C.ar    1  UNL1        0.0015
     22 C         142.0781  142.1448  161.7000 C.ar    1  UNL1        0.0009
     23 C         141.5854  143.2342  162.6057 C.ar    1  UNL1        0.0114
     24 C         140.2178  143.1419  163.2148 C.ar    1  UNL1        0.0577
     25 CL        139.7251  144.2314  164.1206 Cl      1  UNL1       -0.0822
     26 C         139.3429  141.9602  162.9183 C.ar    1  UNL1        0.0114
     27 C         139.8356  140.8707  162.0126 C.ar    1  UNL1        0.0009
     28 C         138.6407  141.1721  155.3634 C.3     1  UNL1        0.0946
     29 C         139.4013  140.0108  155.9319 C.2     1  UNL1        0.2232
     30 O         138.6707  138.7716  156.3570 O.2     1  UNL1       -0.2751
     31 N         140.8924  140.0888  156.0752 N.am    1  UNL1       -0.3019
     32 H         141.3718  140.9021  155.7962 H       1  UNL1        0.1497
@<TRIPOS>BOND
     1    28    29    1
     2    29    30    2
     3    29    31   am
     4     1    31    1
     5     1     2    1
     6     2     3    1
     7     3     4    1
     8     3     5    1
     9     3     6    1
    10     6     7    1
    11     7     8   ar
    12     8     9   ar
    13     9    13    1
    14    13    14   ar
    15    14    15   ar
    16    15    16   ar
    17    16    17    1
    18    16    18   ar
    19    18    19   ar
    20    19    20    1
    21     9    10   ar
    22    10    21    1
    23    21    22   ar
    24    22    23   ar
    25    23    24   ar
    26    24    25    1
    27    24    26   ar
    28    26    27   ar
    29    10    11   ar
    30    11    12   ar
    31    12     1    1
    32    12     7   ar
    33    19    13   ar
    34    27    21   ar
    35    31    32    1
@<TRIPOS>MOLECULE
*****
 32 35 0 0 0
SMALL
GASTEIGER

@<TRIPOS>ATOM
      1 C         138.1755  140.2000  156.2917 C.3     1  UNL1        0.1020
      2 C         137.6838  141.0988  155.1962 C.3     1  UNL1        0.0643
      3 C         137.3717  142.5365  155.4889 C.3     1  UNL1        0.1368
      4 C         137.0442  142.4915  154.0258 C.3     1  UNL1        0.0437
      5 C         136.9460  143.9586  155.2733 C.3     1  UNL1        0.0437
      6 O         137.5514  143.0754  156.8771 O.3     1  UNL1       -0.4676
      7 C         138.0431  142.1766  157.9727 C.ar    1  UNL1        0.2219
      8 N         138.2229  142.7154  159.3610 N.ar    1  UNL1       -0.2119
      9 C         138.7146  141.8166  160.4565 C.ar    1  UNL1        0.0851
     10 C         139.0266  140.3789  160.1638 C.ar    1  UNL1        0.0177
     11 C         138.8469  139.8400  158.7756 C.ar    1  UNL1        0.0034
     12 C         138.3552  140.7389  157.6800 C.ar    1  UNL1        0.0488
     13 C         138.8943  142.3554  161.8449 C.ar    1  UNL1        0.0284
     14 C         137.7803  142.2432  162.8430 C.ar    1  UNL1        0.0032
     15 C         137.9600  142.7820  164.2313 C.ar    1  UNL1        0.0115
     16 C         139.2538  143.4331  164.6214 C.ar    1  UNL1        0.0585
     17 CL        139.4335  143.9720  166.0097 Cl      1  UNL1       -0.0822
     18 C         140.3678  143.5454  163.6233 C.ar    1  UNL1        0.0228
     19 C         140.1881  143.0065  162.2350 C.ar    1  UNL1        0.0599
     20 CL        141.3021  143.1188  161.2368 Cl      1  UNL1       -0.0822
     21 C         139.5183  139.4801  161.2595 C.ar    1  UNL1        0.0015
     22 C         140.9805  139.4320  161.5906 C.ar    1  UNL1        0.0009
     23 C         141.4723  138.5332  162.6862 C.ar    1  UNL1        0.0114
     24 C         140.5018  137.6825  163.4506 C.ar    1  UNL1        0.0577
     25 CL        140.9935  136.7837  164.5463 Cl      1  UNL1       -0.0822
     26 C         139.0396  137.7305  163.1195 C.ar    1  UNL1        0.0114
     27 C         138.5479  138.6293  162.0239 C.ar    1  UNL1        0.0009
     28 C         140.1943  136.9215  155.3297 C.3     1  UNL1        0.0946
     29 C         139.8823  138.3592  155.6224 C.2     1  UNL1        0.2232
     30 O         140.9652  139.3938  155.5385 O.2     1  UNL1       -0.2751
     31 N         138.4875  138.7623  155.9990 N.am    1  UNL1       -0.3019
     32 H         137.7768  138.0833  156.0541 H       1  UNL1        0.1497
@<TRIPOS>BOND
     1    28    29    1
     2    29    30    2
     3    29    31   am
     4     1    31    1
     5     1     2    1
     6     2     3    1
     7     3     4    1
     8     3     5    1
     9     3     6    1
    10     6     7    1
    11     7     8   ar
    12     8     9   ar
    13     9    13    1
    14    13    14   ar
    15    14    15   ar
    16    15    16   ar
    17    16    17    1
    18    16    18   ar
    19    18    19   ar
    20    19    20    1
    21     9    10   ar
    22    10    21    1
    23    21    22   ar
    24    22    23   ar
    25    23    24   ar
    26    24    25    1
    27    24    26   ar
    28    26    27   ar
    29    10    11   ar
    30    11    12   ar
    31    12     1    1
    32    12     7   ar
    33    19    13   ar
    34    27    21   ar
    35    31    32    1
@<TRIPOS>MOLECULE
*****
 32 35 0 0 0
SMALL
GASTEIGER

@<TRIPOS>ATOM
      1 C         140.2646  136.7814  156.1168 C.3     1  UNL1        0.1020
      2 C         141.0135  135.7775  155.2914 C.3     1  UNL1        0.0643
      3 C         142.4773  135.5530  155.5296 C.3     1  UNL1        0.1368
      4 C         142.2424  134.5781  154.4142 C.3     1  UNL1        0.0437
      5 C         143.8595  134.9898  155.3804 C.3     1  UNL1        0.0437
      6 O         143.1923  136.3324  156.5933 O.3     1  UNL1       -0.4676
      7 C         142.4434  137.3362  157.4187 C.ar    1  UNL1        0.2219
      8 N         143.1583  138.1157  158.4824 N.ar    1  UNL1       -0.2119
      9 C         142.4094  139.1195  159.3078 C.ar    1  UNL1        0.0851
     10 C         140.9456  139.3441  159.0696 C.ar    1  UNL1        0.0177
     11 C         140.2306  138.5647  158.0059 C.ar    1  UNL1        0.0034
     12 C         140.9795  137.5608  157.1804 C.ar    1  UNL1        0.0488
     13 C         143.1244  139.8990  160.3716 C.ar    1  UNL1        0.0284
     14 C         143.7032  141.2457  160.0534 C.ar    1  UNL1        0.0032
     15 C         144.4181  142.0250  161.1171 C.ar    1  UNL1        0.0115
     16 C         144.5542  141.4576  162.4990 C.ar    1  UNL1        0.0585
     17 CL        145.2691  142.2370  163.5627 Cl      1  UNL1       -0.0822
     18 C         143.9753  140.1109  162.8171 C.ar    1  UNL1        0.0228
     19 C         143.2604  139.3316  161.7534 C.ar    1  UNL1        0.0599
     20 CL        142.6816  137.9848  162.0716 Cl      1  UNL1       -0.0822
     21 C         140.1967  140.3480  159.8950 C.ar    1  UNL1        0.0015
     22 C         140.0637  141.7633  159.4160 C.ar    1  UNL1        0.0009
     23 C         139.3149  142.7672  160.2414 C.ar    1  UNL1        0.0114
     24 C         138.6990  142.3559  161.5458 C.ar    1  UNL1        0.0577
     25 CL        137.9501  143.3598  162.3713 Cl      1  UNL1       -0.0822
     26 C         138.8320  140.9407  162.0248 C.ar    1  UNL1        0.0114
     27 C         139.5808  139.9367  161.1994 C.ar    1  UNL1        0.0009
     28 C         136.8766  137.9048  154.3819 C.3     1  UNL1        0.0946
     29 C         138.3405  137.6803  154.6202 C.2     1  UNL1        0.2232
     30 O         139.3440  138.1302  153.6001 O.2     1  UNL1       -0.2751
     31 N         138.8008  137.0060  155.8785 N.am    1  UNL1       -0.3019
     32 H         138.1421  136.7107  156.5480 H       1  UNL1        0.1497
@<TRIPOS>BOND
     1    28    29    1
     2    29    30    2
     3    29    31   am
     4     1    31    1
     5     1     2    1
     6     2     3    1
     7     3     4    1
     8     3     5    1
     9     3     6    1
    10     6     7    1
    11     7     8   ar
    12     8     9   ar
    13     9    13    1
    14    13    14   ar
    15    14    15   ar
    16    15    16   ar
    17    16    17    1
    18    16    18   ar
    19    18    19   ar
    20    19    20    1
    21     9    10   ar
    22    10    21    1
    23    21    22   ar
    24    22    23   ar
    25    23    24   ar
    26    24    25    1
    27    24    26   ar
    28    26    27   ar
    29    10    11   ar
    30    11    12   ar
    31    12     1    1
    32    12     7   ar
    33    19    13   ar
    34    27    21   ar
    35    31    32    1
@<TRIPOS>MOLECULE
*****
 32 35 0 0 0
SMALL
GASTEIGER

@<TRIPOS>ATOM
      1 C         138.3916  140.9610  164.3665 C.3     1  UNL1        0.1020
      2 C         138.1150  140.0648  165.5371 C.3     1  UNL1        0.0643
      3 C         138.4037  138.5960  165.4418 C.3     1  UNL1        0.1368
      4 C         137.8748  138.6671  166.8436 C.3     1  UNL1        0.0437
      5 C         138.5088  137.1518  165.8334 C.3     1  UNL1        0.0437
      6 O         138.9691  138.0233  164.1760 O.3     1  UNL1       -0.4676
      7 C         139.2458  138.9195  163.0054 C.ar    1  UNL1        0.2219
      8 N         139.8112  138.3469  161.7395 N.ar    1  UNL1       -0.2119
      9 C         140.0878  139.2431  160.5690 C.ar    1  UNL1        0.0851
     10 C         139.7991  140.7119  160.6642 C.ar    1  UNL1        0.0177
     11 C         139.2337  141.2846  161.9300 C.ar    1  UNL1        0.0034
     12 C         138.9570  140.3884  163.1007 C.ar    1  UNL1        0.0488
     13 C         140.6533  138.6705  159.3030 C.ar    1  UNL1        0.0284
     14 C         139.7376  138.2894  158.1777 C.ar    1  UNL1        0.0032
     15 C         140.3031  137.7168  156.9119 C.ar    1  UNL1        0.0115
     16 C         141.7841  137.5253  156.7714 C.ar    1  UNL1        0.0585
     17 CL        142.3496  136.9526  155.5055 Cl      1  UNL1       -0.0822
     18 C         142.6998  137.9063  157.8967 C.ar    1  UNL1        0.0228
     19 C         142.1343  138.4789  159.1625 C.ar    1  UNL1        0.0599
     20 CL        143.0500  138.8600  160.2879 Cl      1  UNL1       -0.0822
     21 C         140.0758  141.6082  159.4936 C.ar    1  UNL1        0.0015
     22 C         141.4539  142.1611  159.2816 C.ar    1  UNL1        0.0009
     23 C         141.7306  143.0573  158.1111 C.ar    1  UNL1        0.0114
     24 C         140.6292  143.4005  157.1525 C.ar    1  UNL1        0.0577
     25 CL        140.9058  144.2967  155.9818 Cl      1  UNL1       -0.0822
     26 C         139.2510  142.8476  157.3644 C.ar    1  UNL1        0.0114
     27 C         138.9743  141.9514  158.5350 C.ar    1  UNL1        0.0009
     28 C         138.8284  144.8249  165.1598 C.3     1  UNL1        0.0946
     29 C         139.1171  143.3561  165.0646 C.2     1  UNL1        0.2232
     30 O         140.4202  142.8134  165.5721 O.2     1  UNL1       -0.2751
     31 N         138.1029  142.4299  164.4618 N.am    1  UNL1       -0.3019
     32 H         137.2476  142.7860  164.1287 H       1  UNL1        0.1497
@<TRIPOS>BOND
     1    28    29    1
     2    29    30    2
     3    29    31   am
     4     1    31    1
     5     1     2    1
     6     2     3    1
     7     3     4    1
     8     3     5    1
     9     3     6    1
    10     6     7    1
    11     7     8   ar
    12     8     9   ar
    13     9    13    1
    14    13    14   ar
    15    14    15   ar
    16    15    16   ar
    17    16    17    1
    18    16    18   ar
    19    18    19   ar
    20    19    20    1
    21     9    10   ar
    22    10    21    1
    23    21    22   ar
    24    22    23   ar
    25    23    24   ar
    26    24    25    1
    27    24    26   ar
    28    26    27   ar
    29    10    11   ar
    30    11    12   ar
    31    12     1    1
    32    12     7   ar
    33    19    13   ar
    34    27    21   ar
    35    31    32    1
@<TRIPOS>MOLECULE
*****
 32 35 0 0 0
SMALL
GASTEIGER

@<TRIPOS>ATOM
      1 C         140.4904  140.4158  157.9326 C.3     1  UNL1        0.1020
      2 C         141.0324  139.4131  156.9575 C.3     1  UNL1        0.0643
      3 C         141.8755  138.2725  157.4453 C.3     1  UNL1        0.1368
      4 C         141.8660  137.9789  155.9744 C.3     1  UNL1        0.0437
      5 C         142.7154  137.0298  157.4222 C.3     1  UNL1        0.0437
      6 O         142.1768  138.1345  158.9082 O.3     1  UNL1       -0.4676
      7 C         141.6348  139.1372  159.8833 C.ar    1  UNL1        0.2219
      8 N         141.9361  138.9992  161.3463 N.ar    1  UNL1       -0.2119
      9 C         141.3942  140.0019  162.3214 C.ar    1  UNL1        0.0851
     10 C         140.5510  141.1426  161.8336 C.ar    1  UNL1        0.0177
     11 C         140.2497  141.2806  160.3707 C.ar    1  UNL1        0.0034
     12 C         140.7917  140.2778  159.3955 C.ar    1  UNL1        0.0488
     13 C         141.6954  139.8640  163.7845 C.ar    1  UNL1        0.0284
     14 C         142.9537  140.4529  164.3499 C.ar    1  UNL1        0.0032
     15 C         143.2549  140.3150  165.8128 C.ar    1  UNL1        0.0115
     16 C         142.2977  139.5881  166.7103 C.ar    1  UNL1        0.0585
     17 CL        142.5990  139.4502  168.1733 Cl      1  UNL1       -0.0822
     18 C         141.0394  138.9992  166.1449 C.ar    1  UNL1        0.0228
     19 C         140.7382  139.1371  164.6820 C.ar    1  UNL1        0.0599
     20 CL        139.4798  138.5482  164.1165 Cl      1  UNL1       -0.0822
     21 C         140.0090  142.1453  162.8088 C.ar    1  UNL1        0.0015
     22 C         138.6278  141.9761  163.3688 C.ar    1  UNL1        0.0009
     23 C         138.0859  142.9788  164.3440 C.ar    1  UNL1        0.0114
     24 C         138.9251  144.1506  164.7591 C.ar    1  UNL1        0.0577
     25 CL        138.3832  145.1533  165.7343 Cl      1  UNL1       -0.0822
     26 C         140.3064  144.3198  164.1991 C.ar    1  UNL1        0.0114
     27 C         140.8483  143.3171  163.2240 C.ar    1  UNL1        0.0009
     28 C         137.3082  142.5905  156.9871 C.3     1  UNL1        0.0946
     29 C         138.1514  141.4498  157.4749 C.2     1  UNL1        0.2232
     30 O         137.4986  140.2025  157.9928 O.2     1  UNL1       -0.2751
     31 N         139.6473  141.5565  157.4448 N.am    1  UNL1       -0.3019
     32 H         140.0757  142.3751  157.1049 H       1  UNL1        0.1497
@<TRIPOS>BOND
     1    28    29    1
     2    29    30    2
     3    29    31   am
     4     1    31    1
     5     1     2    1
     6     2     3    1
     7     3     4    1
     8     3     5    1
     9     3     6    1
    10     6     7    1
    11     7     8   ar
    12     8     9   ar
    13     9    13    1
    14    13    14   ar
    15    14    15   ar
    16    15    16   ar
    17    16    17    1
    18    16    18   ar
    19    18    19   ar
    20    19    20    1
    21     9    10   ar
    22    10    21    1
    23    21    22   ar
    24    22    23   ar
    25    23    24   ar
    26    24    25    1
    27    24    26   ar
    28    26    27   ar
    29    10    11   ar
    30    11    12   ar
    31    12     1    1
    32    12     7   ar
    33    19    13   ar
    34    27    21   ar
    35    31    32    1
@<TRIPOS>MOLECULE
*****
 32 35 0 0 0
SMALL
GASTEIGER

@<TRIPOS>ATOM
      1 C         142.9294  139.3081  156.7348 C.3     1  UNL1        0.1020
      2 C         142.8785  138.0594  155.9055 C.3     1  UNL1        0.0643
      3 C         142.8635  136.7160  156.5727 C.3     1  UNL1        0.1368
      4 C         142.8167  136.2930  155.1343 C.3     1  UNL1        0.0437
      5 C         142.8322  135.2257  156.7402 C.3     1  UNL1        0.0437
      6 O         142.8995  136.6214  158.0692 O.3     1  UNL1       -0.4676
      7 C         142.9504  137.8702  158.8986 C.ar    1  UNL1        0.2219
      8 N         142.9864  137.7757  160.3952 N.ar    1  UNL1       -0.2119
      9 C         143.0373  139.0245  161.2246 C.ar    1  UNL1        0.0851
     10 C         143.0523  140.3678  160.5574 C.ar    1  UNL1        0.0177
     11 C         143.0164  140.4624  159.0608 C.ar    1  UNL1        0.0034
     12 C         142.9654  139.2136  158.2314 C.ar    1  UNL1        0.0488
     13 C         143.0733  138.9299  162.7212 C.ar    1  UNL1        0.0284
     14 C         144.3475  139.2132  163.4602 C.ar    1  UNL1        0.0032
     15 C         144.3834  139.1186  164.9567 C.ar    1  UNL1        0.0115
     16 C         143.1451  138.7408  165.7143 C.ar    1  UNL1        0.0585
     17 CL        143.1811  138.6463  167.2110 Cl      1  UNL1       -0.0822
     18 C         141.8709  138.4576  164.9753 C.ar    1  UNL1        0.0228
     19 C         141.8350  138.5521  163.4788 C.ar    1  UNL1        0.0599
     20 CL        140.5607  138.2689  162.7397 Cl      1  UNL1       -0.0822
     21 C         143.1033  141.6167  161.3868 C.ar    1  UNL1        0.0015
     22 C         141.8519  142.1471  162.0214 C.ar    1  UNL1        0.0009
     23 C         141.9028  143.3958  162.8508 C.ar    1  UNL1        0.0114
     24 C         143.2051  144.1142  163.0456 C.ar    1  UNL1        0.0577
     25 CL        143.2560  145.3630  163.8751 Cl      1  UNL1       -0.0822
     26 C         144.4565  143.5837  162.4111 C.ar    1  UNL1        0.0114
     27 C         144.4056  142.3350  161.5816 C.ar    1  UNL1        0.0009
     28 C         144.2658  142.6523  155.0673 C.3     1  UNL1        0.0946
     29 C         144.2509  141.3089  155.7344 C.2     1  UNL1        0.2232
     30 O         145.5424  140.6229  156.0684 O.2     1  UNL1       -0.2751
     31 N         142.9444  140.6515  156.0676 N.am    1  UNL1       -0.3019
     32 H         142.0968  141.1017  155.8484 H       1  UNL1        0.1497
@<TRIPOS>BOND
     1    28    29    1
     2    29    30    2
     3    29    31   am
     4     1    31    1
     5     1     2    1
     6     2     3    1
     7     3     4    1
     8     3     5    1
     9     3     6    1
    10     6     7    1
    11     7     8   ar
    12     8     9   ar
    13     9    13    1
    14    13    14   ar
    15    14    15   ar
    16    15    16   ar
    17    16    17    1
    18    16    18   ar
    19    18    19   ar
    20    19    20    1
    21     9    10   ar
    22    10    21    1
    23    21    22   ar
    24    22    23   ar
    25    23    24   ar
    26    24    25    1
    27    24    26   ar
    28    26    27   ar
    29    10    11   ar
    30    11    12   ar
    31    12     1    1
    32    12     7   ar
    33    19    13   ar
    34    27    21   ar
    35    31    32    1
@<TRIPOS>MOLECULE
*****
 32 35 0 0 0
SMALL
GASTEIGER

@<TRIPOS>ATOM
      1 C         141.9615  145.2664  156.6456 C.3     1  UNL1        0.1020
      2 C         142.6505  144.9435  155.3529 C.3     1  UNL1        0.0643
      3 C         143.4630  143.6888  155.2292 C.3     1  UNL1        0.1368
      4 C         143.6434  144.2529  153.8511 C.3     1  UNL1        0.0437
      5 C         144.3382  142.6299  154.6268 C.3     1  UNL1        0.0437
      6 O         143.5865  142.7569  156.3981 O.3     1  UNL1       -0.4676
      7 C         142.8975  143.0798  157.6907 C.ar    1  UNL1        0.2219
      8 N         143.0210  142.1479  158.8597 N.ar    1  UNL1       -0.2119
      9 C         142.3320  142.4708  160.1523 C.ar    1  UNL1        0.0851
     10 C         141.5195  143.7256  160.2760 C.ar    1  UNL1        0.0177
     11 C         141.3960  144.6575  159.1072 C.ar    1  UNL1        0.0034
     12 C         142.0850  144.3346  157.8144 C.ar    1  UNL1        0.0488
     13 C         142.4555  141.5389  161.3213 C.ar    1  UNL1        0.0284
     14 C         141.4095  140.4904  161.5583 C.ar    1  UNL1        0.0032
     15 C         141.5330  139.5586  162.7272 C.ar    1  UNL1        0.0115
     16 C         142.7026  139.6753  163.6591 C.ar    1  UNL1        0.0585
     17 CL        142.8261  138.7434  164.8281 Cl      1  UNL1       -0.0822
     18 C         143.7487  140.7239  163.4221 C.ar    1  UNL1        0.0228
     19 C         143.6251  141.6557  162.2532 C.ar    1  UNL1        0.0599
     20 CL        144.6712  142.7043  162.0161 Cl      1  UNL1       -0.0822
     21 C         140.8305  144.0485  161.5688 C.ar    1  UNL1        0.0015
     22 C         141.5948  144.6975  162.6843 C.ar    1  UNL1        0.0009
     23 C         140.9059  145.0204  163.9770 C.ar    1  UNL1        0.0114
     24 C         139.4526  144.6943  164.1541 C.ar    1  UNL1        0.0577
     25 CL        138.7635  145.0172  165.4468 Cl      1  UNL1       -0.0822
     26 C         138.6882  144.0453  163.0385 C.ar    1  UNL1        0.0114
     27 C         139.3771  143.7224  161.7459 C.ar    1  UNL1        0.0009
     28 C         138.9083  147.7930  156.4347 C.3     1  UNL1        0.0946
     29 C         139.7208  146.5382  156.3109 C.2     1  UNL1        0.2232
     30 O         139.1052  145.3004  155.7287 O.2     1  UNL1       -0.2751
     31 N         141.1489  146.5212  156.7693 N.am    1  UNL1       -0.3019
     32 H         141.5530  147.3336  157.1514 H       1  UNL1        0.1497
@<TRIPOS>BOND
     1    28    29    1
     2    29    30    2
     3    29    31   am
     4     1    31    1
     5     1     2    1
     6     2     3    1
     7     3     4    1
     8     3     5    1
     9     3     6    1
    10     6     7    1
    11     7     8   ar
    12     8     9   ar
    13     9    13    1
    14    13    14   ar
    15    14    15   ar
    16    15    16   ar
    17    16    17    1
    18    16    18   ar
    19    18    19   ar
    20    19    20    1
    21     9    10   ar
    22    10    21    1
    23    21    22   ar
    24    22    23   ar
    25    23    24   ar
    26    24    25    1
    27    24    26   ar
    28    26    27   ar
    29    10    11   ar
    30    11    12   ar
    31    12     1    1
    32    12     7   ar
    33    19    13   ar
    34    27    21   ar
    35    31    32    1
