@<TRIPOS>MOLECULE
*****
 44 48 0 0 0
SMALL
GASTEIGER

@<TRIPOS>ATOM
      1 C         141.6963  140.8881  162.6187 C.3     1  UNL1        0.0807
      2 C         141.5500  140.6919  164.0987 C.ar    1  UNL1        0.0375
      3 C         141.2188  141.8588  164.9809 C.ar    1  UNL1        0.0023
      4 C         141.0725  141.6626  166.4608 C.ar    1  UNL1        0.0183
      5 C         140.7414  142.8296  167.3431 C.ar    1  UNL1        0.0118
      6 C         140.5951  142.6332  168.8229 C.ar    1  UNL1        0.0685
      7 C         140.7800  141.2699  169.4205 C.ar    1  UNL1        0.0118
      8 C         141.1112  140.1029  168.5383 C.ar    1  UNL1        0.0199
      9 C         141.2575  140.2992  167.0585 C.ar    1  UNL1        0.0844
     10 N         141.5886  139.1322  166.1761 N.ar    1  UNL1       -0.2119
     11 C         141.7349  139.3285  164.6963 C.ar    1  UNL1        0.2211
     12 C         140.2639  143.8003  169.7053 C.1     1  UNL1        0.1004
     13 N         139.9327  144.9673  170.5875 N.1     1  UNL1       -0.1908
     14 O         142.0661  138.1615  163.8139 O.3     1  UNL1       -0.4563
     15 C         141.0787  137.0450  163.6450 C.3     1  UNL1        0.2542
     16 C         140.8602  140.0825  161.6690 C.ar    1  UNL1        0.0215
     17 C         139.3868  139.9340  161.9076 C.ar    1  UNL1       -0.0007
     18 C         138.5507  139.1283  160.9579 C.ar    1  UNL1        0.0030
     19 C         139.1880  138.4712  159.7697 C.ar    1  UNL1        0.0402
     20 C         140.6615  138.6198  159.5311 C.ar    1  UNL1        0.1761
     21 C         141.4976  139.4254  160.4808 C.ar    1  UNL1        0.1728
     22 O         142.9149  139.3951  159.9907 O.3     1  UNL1       -0.4349
     23 C         142.9548  138.5708  158.7382 C.3     1  UNL1        0.4294
     24 O         141.5621  138.0916  158.4541 O.3     1  UNL1       -0.4346
     25 C         142.6786  141.8901  162.0885 C.3     1  UNL1        0.1160
     26 O         143.8100  141.0673  162.6298 O.3     1  UNL1       -0.3820
     27 H         144.6528  141.5008  162.4233 H       1  UNL1        0.2107
     28 C         140.3364  143.8272  159.5367 C.ar    1  UNL1        0.1070
     29 C         141.4678  143.0043  160.0780 C.ar    1  UNL1        0.0235
     30 C         141.5472  142.7129  161.5472 C.ar    1  UNL1        0.0064
     31 C         140.4954  143.2443  162.4752 C.ar    1  UNL1        0.0235
     32 C         139.3640  144.0671  161.9339 C.ar    1  UNL1        0.1070
     33 N         139.2845  144.3585  160.4647 N.ar    1  UNL1       -0.2330
     34 S         140.2570  144.1186  158.0674 S.3     1  UNL1       -0.0950
     35 C         141.9995  145.9798  157.5678 C.3     1  UNL1        0.0130
     36 C         140.5814  145.4911  157.5564 C.3     1  UNL1        0.0637
     37 S         138.3121  144.5985  162.8619 S.3     1  UNL1       -0.0950
     38 C         138.2092  144.0680  164.2612 C.3     1  UNL1        0.0637
     39 C         138.5908  144.9371  165.4227 C.3     1  UNL1        0.0130
     40 C         143.6610  142.8920  161.5584 C.3     1  UNL1        0.0491
     41 C         144.5972  143.5936  162.4970 C.3     1  UNL1        0.0750
     42 N         144.0993  144.0874  163.8231 N.3     1  UNL1       -0.2702
     43 C         144.5291  143.4040  165.0873 C.3     1  UNL1        0.0897
     44 C         143.1717  145.2645  163.8849 C.3     1  UNL1        0.0897
@<TRIPOS>BOND
     1    35    36    1
     2    36    34    1
     3    34    28    1
     4    28    29   ar
     5    29    30   ar
     6    30    25    1
     7    25    26    1
     8    25    40    1
     9    40    41    1
    10    41    42    1
    11    42    43    1
    12    42    44    1
    13    25     1    1
    14     1     2    1
    15     2     3   ar
    16     3     4   ar
    17     4     5   ar
    18     5     6   ar
    19     6    12    1
    20    12    13    3
    21     6     7   ar
    22     7     8   ar
    23     8     9   ar
    24     9    10   ar
    25    10    11   ar
    26    11    14    1
    27    14    15    1
    28     1    16    1
    29    16    17   ar
    30    17    18   ar
    31    18    19   ar
    32    19    20   ar
    33    20    21   ar
    34    21    22    1
    35    22    23    1
    36    23    24    1
    37    30    31   ar
    38    31    32   ar
    39    32    37    1
    40    37    38    1
    41    38    39    1
    42    32    33   ar
    43    33    28   ar
    44    11     2   ar
    45    21    16   ar
    46     9     4   ar
    47    24    20    1
    48    26    27    1
@<TRIPOS>MOLECULE
*****
 44 48 0 0 0
SMALL
GASTEIGER

@<TRIPOS>ATOM
      1 C         141.9153  140.9237  162.4062 C.3     1  UNL1        0.0807
      2 C         141.7035  140.6863  163.8721 C.ar    1  UNL1        0.0375
      3 C         141.3862  141.8372  164.7801 C.ar    1  UNL1        0.0023
      4 C         141.1744  141.5997  166.2460 C.ar    1  UNL1        0.0183
      5 C         140.8571  142.7507  167.1541 C.ar    1  UNL1        0.0118
      6 C         140.6453  142.5131  168.6199 C.ar    1  UNL1        0.0685
      7 C         140.7506  141.1247  169.1777 C.ar    1  UNL1        0.0118
      8 C         141.0679  139.9737  168.2696 C.ar    1  UNL1        0.0199
      9 C         141.2797  140.2113  166.8038 C.ar    1  UNL1        0.0844
     10 N         141.5970  139.0603  165.8956 N.ar    1  UNL1       -0.2119
     11 C         141.8089  139.2978  164.4298 C.ar    1  UNL1        0.2211
     12 C         140.3280  143.6641  169.5281 C.1     1  UNL1        0.1004
     13 N         140.0107  144.8151  170.4361 N.1     1  UNL1       -0.1908
     14 O         142.1261  138.1468  163.5216 O.3     1  UNL1       -0.4563
     15 C         141.1023  137.0774  163.2806 C.3     1  UNL1        0.2542
     16 C         141.1416  140.1272  161.3978 C.ar    1  UNL1        0.0215
     17 C         141.8667  139.3563  160.3349 C.ar    1  UNL1       -0.0007
     18 C         141.0929  138.5597  159.3264 C.ar    1  UNL1        0.0030
     19 C         139.5941  138.5341  159.3811 C.ar    1  UNL1        0.0402
     20 C         138.8691  139.3050  160.4441 C.ar    1  UNL1        0.1761
     21 C         139.6428  140.1016  161.4524 C.ar    1  UNL1        0.1728
     22 O         138.6608  140.7570  162.3777 O.3     1  UNL1       -0.4349
     23 C         137.2802  140.3655  161.9412 C.3     1  UNL1        0.4294
     24 O         137.4089  139.4681  160.7461 O.3     1  UNL1       -0.4346
     25 C         142.9010  141.9578  161.9487 C.3     1  UNL1        0.1160
     26 O         144.0233  141.1369  162.5114 O.3     1  UNL1       -0.3820
     27 H         144.8661  141.5905  162.3537 H       1  UNL1        0.2107
     28 C         140.4891  143.7231  159.3379 C.ar    1  UNL1        0.1070
     29 C         141.6114  142.9022  159.9005 C.ar    1  UNL1        0.0235
     30 C         141.7787  142.7786  161.3860 C.ar    1  UNL1        0.0064
     31 C         140.8236  143.4759  162.3088 C.ar    1  UNL1        0.0235
     32 C         139.7013  144.2968  161.7462 C.ar    1  UNL1        0.1070
     33 N         139.5340  144.4203  160.2607 N.ar    1  UNL1       -0.2330
     34 S         140.3218  143.8466  157.8523 S.3     1  UNL1       -0.0950
     35 C         141.9556  145.8543  157.6289 C.3     1  UNL1        0.0130
     36 C         140.7489  145.1021  157.1513 C.3     1  UNL1        0.0637
     37 S         138.7462  144.9941  162.6691 S.3     1  UNL1       -0.0950
     38 C         138.1910  144.2706  163.8600 C.3     1  UNL1        0.0637
     39 C         138.4995  144.7581  165.2446 C.3     1  UNL1        0.0130
     40 C         143.8866  142.9918  161.4912 C.3     1  UNL1        0.0491
     41 C         144.7508  143.6991  162.4927 C.3     1  UNL1        0.0750
     42 N         144.1861  144.0926  163.8255 N.3     1  UNL1       -0.2702
     43 C         144.5728  143.3307  165.0583 C.3     1  UNL1        0.0897
     44 C         143.2347  145.2479  163.9254 C.3     1  UNL1        0.0897
@<TRIPOS>BOND
     1    35    36    1
     2    36    34    1
     3    34    28    1
     4    28    29   ar
     5    29    30   ar
     6    30    25    1
     7    25    26    1
     8    25    40    1
     9    40    41    1
    10    41    42    1
    11    42    43    1
    12    42    44    1
    13    25     1    1
    14     1     2    1
    15     2     3   ar
    16     3     4   ar
    17     4     5   ar
    18     5     6   ar
    19     6    12    1
    20    12    13    3
    21     6     7   ar
    22     7     8   ar
    23     8     9   ar
    24     9    10   ar
    25    10    11   ar
    26    11    14    1
    27    14    15    1
    28     1    16    1
    29    16    17   ar
    30    17    18   ar
    31    18    19   ar
    32    19    20   ar
    33    20    21   ar
    34    21    22    1
    35    22    23    1
    36    23    24    1
    37    30    31   ar
    38    31    32   ar
    39    32    37    1
    40    37    38    1
    41    38    39    1
    42    32    33   ar
    43    33    28   ar
    44    11     2   ar
    45    21    16   ar
    46     9     4   ar
    47    24    20    1
    48    26    27    1
@<TRIPOS>MOLECULE
*****
 44 48 0 0 0
SMALL
GASTEIGER

@<TRIPOS>ATOM
      1 C         141.7027  140.8682  162.5175 C.3     1  UNL1        0.0807
      2 C         141.5562  140.6632  163.9962 C.ar    1  UNL1        0.0375
      3 C         141.2301  141.8259  164.8859 C.ar    1  UNL1        0.0023
      4 C         141.0836  141.6208  166.3647 C.ar    1  UNL1        0.0183
      5 C         140.7575  142.7835  167.2544 C.ar    1  UNL1        0.0118
      6 C         140.6110  142.5784  168.7331 C.ar    1  UNL1        0.0685
      7 C         140.7906  141.2106  169.3219 C.ar    1  UNL1        0.0118
      8 C         141.1167  140.0478  168.4322 C.ar    1  UNL1        0.0199
      9 C         141.2632  140.2530  166.9536 C.ar    1  UNL1        0.0844
     10 N         141.5893  139.0902  166.0637 N.ar    1  UNL1       -0.2119
     11 C         141.7358  139.2953  164.5851 C.ar    1  UNL1        0.2211
     12 C         140.2849  143.7412  169.6229 C.1     1  UNL1        0.1004
     13 N         139.9588  144.9038  170.5127 N.1     1  UNL1       -0.1908
     14 O         142.0619  138.1326  163.6952 O.3     1  UNL1       -0.4563
     15 C         141.0581  137.0358  163.4962 C.3     1  UNL1        0.2542
     16 C         140.8541  140.0811  161.5634 C.ar    1  UNL1        0.0215
     17 C         139.3788  139.9532  161.8021 C.ar    1  UNL1       -0.0007
     18 C         138.5301  139.1661  160.8480 C.ar    1  UNL1        0.0030
     19 C         139.1568  138.5069  159.6553 C.ar    1  UNL1        0.0402
     20 C         140.6322  138.6348  159.4166 C.ar    1  UNL1        0.1761
     21 C         141.4808  139.4219  160.3706 C.ar    1  UNL1        0.1728
     22 O         142.8973  139.3734  159.8794 O.3     1  UNL1       -0.4349
     23 C         142.9241  138.5564  158.6218 C.3     1  UNL1        0.4294
     24 O         141.5241  138.0999  158.3357 O.3     1  UNL1       -0.4346
     25 C         142.6979  141.8604  161.9929 C.3     1  UNL1        0.1160
     26 O         143.8202  140.9867  162.4694 O.3     1  UNL1       -0.3820
     27 H         144.6689  141.4033  162.2523 H       1  UNL1        0.2107
     28 C         139.4640  144.1607  162.0226 C.ar    1  UNL1        0.1070
     29 C         140.5863  143.2869  162.4991 C.ar    1  UNL1        0.0235
     30 C         141.5756  142.7341  161.5164 C.ar    1  UNL1        0.0064
     31 C         141.4426  143.0551  160.0572 C.ar    1  UNL1        0.0235
     32 C         140.3203  143.9288  159.5807 C.ar    1  UNL1        0.1070
     33 N         139.3310  144.4816  160.5634 N.ar    1  UNL1       -0.2330
     34 S         138.4747  144.7135  163.0053 S.3     1  UNL1       -0.0950
     35 C         137.6339  142.4947  164.0637 C.3     1  UNL1        0.0130
     36 C         138.0939  143.9143  164.2162 C.3     1  UNL1        0.0637
     37 S         140.1873  144.2497  158.1214 S.3     1  UNL1       -0.0950
     38 C         140.5993  145.5981  157.6095 C.3     1  UNL1        0.0637
     39 C         142.0514  145.9085  157.3980 C.3     1  UNL1        0.0130
     40 C         143.6931  142.8526  161.4683 C.3     1  UNL1        0.0491
     41 C         144.6424  143.5322  162.4101 C.3     1  UNL1        0.0750
     42 N         144.1664  143.9830  163.7592 N.3     1  UNL1       -0.2702
     43 C         144.5958  143.2436  164.9916 C.3     1  UNL1        0.0897
     44 C         143.2609  145.1731  163.8760 C.3     1  UNL1        0.0897
@<TRIPOS>BOND
     1    35    36    1
     2    36    34    1
     3    34    28    1
     4    28    29   ar
     5    29    30   ar
     6    30    25    1
     7    25    26    1
     8    25    40    1
     9    40    41    1
    10    41    42    1
    11    42    43    1
    12    42    44    1
    13    25     1    1
    14     1     2    1
    15     2     3   ar
    16     3     4   ar
    17     4     5   ar
    18     5     6   ar
    19     6    12    1
    20    12    13    3
    21     6     7   ar
    22     7     8   ar
    23     8     9   ar
    24     9    10   ar
    25    10    11   ar
    26    11    14    1
    27    14    15    1
    28     1    16    1
    29    16    17   ar
    30    17    18   ar
    31    18    19   ar
    32    19    20   ar
    33    20    21   ar
    34    21    22    1
    35    22    23    1
    36    23    24    1
    37    30    31   ar
    38    31    32   ar
    39    32    37    1
    40    37    38    1
    41    38    39    1
    42    32    33   ar
    43    33    28   ar
    44    11     2   ar
    45    21    16   ar
    46     9     4   ar
    47    24    20    1
    48    26    27    1
@<TRIPOS>MOLECULE
*****
 44 48 0 0 0
SMALL
GASTEIGER

@<TRIPOS>ATOM
      1 C         140.4419  140.7022  162.9149 C.3     1  UNL1        0.0807
      2 C         140.3015  140.5665  164.4022 C.ar    1  UNL1        0.0375
      3 C         141.1033  141.4465  165.3146 C.ar    1  UNL1        0.0023
      4 C         140.9629  141.3108  166.8019 C.ar    1  UNL1        0.0183
      5 C         141.7648  142.1908  167.7143 C.ar    1  UNL1        0.0118
      6 C         141.6243  142.0551  169.2015 C.ar    1  UNL1        0.0685
      7 C         140.6820  141.0393  169.7763 C.ar    1  UNL1        0.0118
      8 C         139.8801  140.1594  168.8639 C.ar    1  UNL1        0.0199
      9 C         140.0206  140.2951  167.3767 C.ar    1  UNL1        0.0844
     10 N         139.2187  139.4151  166.4642 N.ar    1  UNL1       -0.2119
     11 C         139.3591  139.5508  164.9770 C.ar    1  UNL1        0.2211
     12 C         142.4262  142.9351  170.1141 C.1     1  UNL1        0.1004
     13 N         143.2281  143.8151  171.0265 N.1     1  UNL1       -0.1908
     14 O         138.5573  138.6708  164.0645 O.3     1  UNL1       -0.4563
     15 C         139.1320  137.3736  163.5775 C.3     1  UNL1        0.2542
     16 C         141.3919  139.8144  162.1672 C.ar    1  UNL1        0.0215
     17 C         142.7457  139.5144  162.7391 C.ar    1  UNL1       -0.0007
     18 C         143.6959  138.6265  161.9913 C.ar    1  UNL1        0.0030
     19 C         143.2921  138.0387  160.6717 C.ar    1  UNL1        0.0402
     20 C         141.9382  138.3387  160.0998 C.ar    1  UNL1        0.1761
     21 C         140.9881  139.2266  160.8475 C.ar    1  UNL1        0.1728
     22 O         139.7295  139.3429  160.0400 O.3     1  UNL1       -0.4349
     23 C         139.9016  138.5270  158.7931 C.3     1  UNL1        0.4294
     24 O         141.2667  137.9064  158.8301 O.3     1  UNL1       -0.4346
     25 C         139.6322  141.7257  162.1754 C.3     1  UNL1        0.1160
     26 O         138.3762  140.9828  162.5224 O.3     1  UNL1       -0.3820
     27 H         137.6118  141.4467  162.1464 H       1  UNL1        0.2107
     28 C         142.5886  143.3072  160.0520 C.ar    1  UNL1        0.1070
     29 C         141.3325  142.5643  160.3990 C.ar    1  UNL1        0.0235
     30 C         140.8883  142.4686  161.8285 C.ar    1  UNL1        0.0064
     31 C         141.7001  143.1159  162.9110 C.ar    1  UNL1        0.0235
     32 C         142.9562  143.8588  162.5640 C.ar    1  UNL1        0.1070
     33 N         143.4004  143.9545  161.1345 N.ar    1  UNL1       -0.2330
     34 S         143.0328  143.4028  158.6224 S.3     1  UNL1       -0.0950
     35 C         144.1159  141.0416  158.5825 C.3     1  UNL1        0.0130
     36 C         144.0737  142.4598  158.0959 C.3     1  UNL1        0.0637
     37 S         143.7681  144.5061  163.6466 S.3     1  UNL1       -0.0950
     38 C         144.2408  143.6948  164.8164 C.3     1  UNL1        0.0637
     39 C         144.8510  142.3428  164.5938 C.3     1  UNL1        0.0130
     40 C         138.8226  142.7493  161.4360 C.3     1  UNL1        0.0491
     41 C         138.0533  143.7889  162.1958 C.3     1  UNL1        0.0750
     42 N         138.7830  144.8771  162.9262 N.3     1  UNL1       -0.2702
     43 C         138.8373  144.8683  164.4252 C.3     1  UNL1        0.0897
     44 C         139.4583  145.9740  162.1577 C.3     1  UNL1        0.0897
@<TRIPOS>BOND
     1    35    36    1
     2    36    34    1
     3    34    28    1
     4    28    29   ar
     5    29    30   ar
     6    30    25    1
     7    25    26    1
     8    25    40    1
     9    40    41    1
    10    41    42    1
    11    42    43    1
    12    42    44    1
    13    25     1    1
    14     1     2    1
    15     2     3   ar
    16     3     4   ar
    17     4     5   ar
    18     5     6   ar
    19     6    12    1
    20    12    13    3
    21     6     7   ar
    22     7     8   ar
    23     8     9   ar
    24     9    10   ar
    25    10    11   ar
    26    11    14    1
    27    14    15    1
    28     1    16    1
    29    16    17   ar
    30    17    18   ar
    31    18    19   ar
    32    19    20   ar
    33    20    21   ar
    34    21    22    1
    35    22    23    1
    36    23    24    1
    37    30    31   ar
    38    31    32   ar
    39    32    37    1
    40    37    38    1
    41    38    39    1
    42    32    33   ar
    43    33    28   ar
    44    11     2   ar
    45    21    16   ar
    46     9     4   ar
    47    24    20    1
    48    26    27    1
@<TRIPOS>MOLECULE
*****
 44 48 0 0 0
SMALL
GASTEIGER

@<TRIPOS>ATOM
      1 C         141.7863  140.6083  163.3923 C.3     1  UNL1        0.0807
      2 C         141.9614  140.5288  164.8800 C.ar    1  UNL1        0.0375
      3 C         141.1104  141.3732  165.7815 C.ar    1  UNL1        0.0023
      4 C         141.2854  141.2938  167.2692 C.ar    1  UNL1        0.0183
      5 C         140.4344  142.1381  168.1706 C.ar    1  UNL1        0.0118
      6 C         140.6095  142.0587  169.6582 C.ar    1  UNL1        0.0685
      7 C         141.6356  141.1348  170.2443 C.ar    1  UNL1        0.0118
      8 C         142.4867  140.2905  169.3429 C.ar    1  UNL1        0.0199
      9 C         142.3116  140.3699  167.8553 C.ar    1  UNL1        0.0844
     10 N         143.1627  139.5255  166.9537 N.ar    1  UNL1       -0.2119
     11 C         142.9876  139.6050  165.4661 C.ar    1  UNL1        0.2211
     12 C         139.7584  142.9031  170.5598 C.1     1  UNL1        0.1004
     13 N         138.9073  143.7474  171.4613 N.1     1  UNL1       -0.1908
     14 O         143.8386  138.7606  164.5646 O.3     1  UNL1       -0.4563
     15 C         145.2342  139.1949  164.2274 C.3     1  UNL1        0.2542
     16 C         142.7627  141.3883  162.5629 C.ar    1  UNL1        0.0215
     17 C         143.4640  140.7292  161.4123 C.ar    1  UNL1       -0.0007
     18 C         144.4405  141.5093  160.5828 C.ar    1  UNL1        0.0030
     19 C         144.7156  142.9485  160.9038 C.ar    1  UNL1        0.0402
     20 C         144.0143  143.6076  162.0544 C.ar    1  UNL1        0.1761
     21 C         143.0379  142.8275  162.8839 C.ar    1  UNL1        0.1728
     22 O         142.5021  143.7386  163.9483 O.3     1  UNL1       -0.4349
     23 C         143.1474  145.0818  163.7766 C.3     1  UNL1        0.4294
     24 O         144.0820  145.0008  162.6061 O.3     1  UNL1       -0.4346
     25 C         140.6349  139.9076  162.7342 C.3     1  UNL1        0.1160
     26 O         141.1232  138.5966  163.2755 O.3     1  UNL1       -0.3820
     27 H         140.5264  137.8869  162.9909 H       1  UNL1        0.2107
     28 C         139.9362  142.9024  160.2257 C.ar    1  UNL1        0.1070
     29 C         140.4245  141.5915  160.7670 C.ar    1  UNL1        0.0235
     30 C         140.1465  141.2185  162.1930 C.ar    1  UNL1        0.0064
     31 C         139.3801  142.1565  163.0777 C.ar    1  UNL1        0.0235
     32 C         138.8917  143.4674  162.5365 C.ar    1  UNL1        0.1070
     33 N         139.1698  143.8404  161.1105 N.ar    1  UNL1       -0.2330
     34 S         140.2142  143.2754  158.7996 S.3     1  UNL1       -0.0950
     35 C         142.5976  143.9306  157.9996 C.3     1  UNL1        0.0130
     36 C         141.5214  142.8993  158.1673 C.3     1  UNL1        0.0637
     37 S         138.1253  144.4054  163.4213 S.3     1  UNL1       -0.0950
     38 C         137.9775  144.1047  164.8835 C.3     1  UNL1        0.0637
     39 C         138.4626  145.0906  165.9046 C.3     1  UNL1        0.0130
     40 C         139.4834  139.2069  162.0761 C.3     1  UNL1        0.0491
     41 C         138.3933  138.6063  162.9133 C.3     1  UNL1        0.0750
     42 N         138.4813  138.6596  164.4098 N.3     1  UNL1       -0.2702
     43 C         138.9728  137.4669  165.1752 C.3     1  UNL1        0.0897
     44 C         138.0777  139.9057  165.1409 C.3     1  UNL1        0.0897
@<TRIPOS>BOND
     1    35    36    1
     2    36    34    1
     3    34    28    1
     4    28    29   ar
     5    29    30   ar
     6    30    25    1
     7    25    26    1
     8    25    40    1
     9    40    41    1
    10    41    42    1
    11    42    43    1
    12    42    44    1
    13    25     1    1
    14     1     2    1
    15     2     3   ar
    16     3     4   ar
    17     4     5   ar
    18     5     6   ar
    19     6    12    1
    20    12    13    3
    21     6     7   ar
    22     7     8   ar
    23     8     9   ar
    24     9    10   ar
    25    10    11   ar
    26    11    14    1
    27    14    15    1
    28     1    16    1
    29    16    17   ar
    30    17    18   ar
    31    18    19   ar
    32    19    20   ar
    33    20    21   ar
    34    21    22    1
    35    22    23    1
    36    23    24    1
    37    30    31   ar
    38    31    32   ar
    39    32    37    1
    40    37    38    1
    41    38    39    1
    42    32    33   ar
    43    33    28   ar
    44    11     2   ar
    45    21    16   ar
    46     9     4   ar
    47    24    20    1
    48    26    27    1
@<TRIPOS>MOLECULE
*****
 44 48 0 0 0
SMALL
GASTEIGER

@<TRIPOS>ATOM
      1 C         141.5918  142.3542  162.5027 C.3     1  UNL1        0.0807
      2 C         141.8937  142.1244  163.9540 C.ar    1  UNL1        0.0375
      3 C         140.8078  141.6683  164.8828 C.ar    1  UNL1        0.0023
      4 C         141.1096  141.4385  166.3341 C.ar    1  UNL1        0.0183
      5 C         140.0238  140.9824  167.2629 C.ar    1  UNL1        0.0118
      6 C         140.3257  140.7526  168.7141 C.ar    1  UNL1        0.0685
      7 C         141.7135  140.9789  169.2365 C.ar    1  UNL1        0.0118
      8 C         142.7993  141.4350  168.3076 C.ar    1  UNL1        0.0199
      9 C         142.4974  141.6648  166.8564 C.ar    1  UNL1        0.0844
     10 N         143.5833  142.1209  165.9275 N.ar    1  UNL1       -0.2119
     11 C         143.2814  142.3507  164.4763 C.ar    1  UNL1        0.2211
     12 C         139.2398  140.2965  169.6431 C.1     1  UNL1        0.1004
     13 N         138.1539  139.8404  170.5719 N.1     1  UNL1       -0.1908
     14 O         144.3673  142.8068  163.5474 O.3     1  UNL1       -0.4563
     15 C         145.5962  141.9671  163.3605 C.3     1  UNL1        0.2542
     16 C         142.4856  141.7703  161.4491 C.ar    1  UNL1        0.0215
     17 C         143.0133  142.6402  160.3470 C.ar    1  UNL1       -0.0007
     18 C         143.9072  142.0563  159.2933 C.ar    1  UNL1        0.0030
     19 C         144.2732  140.6024  159.3419 C.ar    1  UNL1        0.0402
     20 C         143.7454  139.7325  160.4440 C.ar    1  UNL1        0.1761
     21 C         142.8516  140.3164  161.4976 C.ar    1  UNL1        0.1728
     22 O         142.4866  139.2209  162.4550 O.3     1  UNL1       -0.4349
     23 C         143.1548  137.9600  161.9931 C.3     1  UNL1        0.4294
     24 O         143.9328  138.2761  160.7502 O.3     1  UNL1       -0.4346
     25 C         140.3961  143.1680  162.1051 C.3     1  UNL1        0.1160
     26 O         141.0154  144.3831  162.7295 O.3     1  UNL1       -0.3820
     27 H         140.4199  145.1412  162.6217 H       1  UNL1        0.2107
     28 C         138.8681  140.7156  159.3846 C.ar    1  UNL1        0.1070
     29 C         139.4875  141.9307  160.0090 C.ar    1  UNL1        0.0235
     30 C         139.7767  141.9529  161.4807 C.ar    1  UNL1        0.0064
     31 C         139.4466  140.7599  162.3279 C.ar    1  UNL1        0.0235
     32 C         138.8273  139.5448  161.7035 C.ar    1  UNL1        0.1070
     33 N         138.5380  139.5227  160.2318 N.ar    1  UNL1       -0.2330
     34 S         138.5789  140.6935  157.9129 S.3     1  UNL1       -0.0950
     35 C         140.9807  139.9022  157.3170 C.3     1  UNL1        0.0130
     36 C         139.5244  140.0061  156.9730 C.3     1  UNL1        0.0637
     37 S         138.4972  138.3518  162.5508 S.3     1  UNL1       -0.0950
     38 C         138.7378  138.3934  164.0308 C.3     1  UNL1        0.0637
     39 C         139.9502  137.7289  164.6125 C.3     1  UNL1        0.0130
     40 C         139.2004  143.9818  161.7075 C.3     1  UNL1        0.0491
     41 C         138.4381  144.7512  162.7452 C.3     1  UNL1        0.0750
     42 N         138.2285  144.1651  164.1099 N.3     1  UNL1       -0.2702
     43 C         138.8013  144.8488  165.3159 C.3     1  UNL1        0.0897
     44 C         137.4459  142.8953  164.2687 C.3     1  UNL1        0.0897
@<TRIPOS>BOND
     1    35    36    1
     2    36    34    1
     3    34    28    1
     4    28    29   ar
     5    29    30   ar
     6    30    25    1
     7    25    26    1
     8    25    40    1
     9    40    41    1
    10    41    42    1
    11    42    43    1
    12    42    44    1
    13    25     1    1
    14     1     2    1
    15     2     3   ar
    16     3     4   ar
    17     4     5   ar
    18     5     6   ar
    19     6    12    1
    20    12    13    3
    21     6     7   ar
    22     7     8   ar
    23     8     9   ar
    24     9    10   ar
    25    10    11   ar
    26    11    14    1
    27    14    15    1
    28     1    16    1
    29    16    17   ar
    30    17    18   ar
    31    18    19   ar
    32    19    20   ar
    33    20    21   ar
    34    21    22    1
    35    22    23    1
    36    23    24    1
    37    30    31   ar
    38    31    32   ar
    39    32    37    1
    40    37    38    1
    41    38    39    1
    42    32    33   ar
    43    33    28   ar
    44    11     2   ar
    45    21    16   ar
    46     9     4   ar
    47    24    20    1
    48    26    27    1
@<TRIPOS>MOLECULE
*****
 44 48 0 0 0
SMALL
GASTEIGER

@<TRIPOS>ATOM
      1 C         141.5477  142.3650  162.4776 C.3     1  UNL1        0.0807
      2 C         141.8562  142.0975  163.9211 C.ar    1  UNL1        0.0375
      3 C         140.7653  141.6584  164.8522 C.ar    1  UNL1        0.0023
      4 C         141.0737  141.3910  166.2957 C.ar    1  UNL1        0.0183
      5 C         139.9828  140.9519  167.2268 C.ar    1  UNL1        0.0118
      6 C         140.2913  140.6844  168.6702 C.ar    1  UNL1        0.0685
      7 C         141.6906  140.8561  169.1823 C.ar    1  UNL1        0.0118
      8 C         142.7815  141.2951  168.2512 C.ar    1  UNL1        0.0199
      9 C         142.4731  141.5626  166.8078 C.ar    1  UNL1        0.0844
     10 N         143.5640  142.0017  165.8766 N.ar    1  UNL1       -0.2119
     11 C         143.2555  142.2691  164.4332 C.ar    1  UNL1        0.2211
     12 C         139.2003  140.2454  169.6014 C.1     1  UNL1        0.1004
     13 N         138.1095  139.8063  170.5326 N.1     1  UNL1       -0.1908
     14 O         144.3465  142.7082  163.5020 O.3     1  UNL1       -0.4563
     15 C         145.5760  141.8650  163.3367 C.3     1  UNL1        0.2542
     16 C         142.3966  141.7525  161.4033 C.ar    1  UNL1        0.0215
     17 C         142.8819  142.5936  160.2601 C.ar    1  UNL1       -0.0007
     18 C         143.7308  141.9811  159.1857 C.ar    1  UNL1        0.0030
     19 C         144.0944  140.5275  159.2546 C.ar    1  UNL1        0.0402
     20 C         143.6091  139.6863  160.3979 C.ar    1  UNL1        0.1761
     21 C         142.7602  140.2988  161.4722 C.ar    1  UNL1        0.1728
     22 O         142.4310  139.2281  162.4697 O.3     1  UNL1       -0.4349
     23 C         143.0765  137.9538  162.0119 C.3     1  UNL1        0.4294
     24 O         143.8046  138.2370  160.7314 O.3     1  UNL1       -0.4346
     25 C         140.3904  143.2450  162.1086 C.3     1  UNL1        0.1160
     26 O         141.0702  144.4124  162.7605 O.3     1  UNL1       -0.3820
     27 H         140.5111  145.2005  162.6761 H       1  UNL1        0.2107
     28 C         138.6836  139.6963  161.6147 C.ar    1  UNL1        0.1070
     29 C         139.3634  140.8637  162.2666 C.ar    1  UNL1        0.0235
     30 C         139.7106  142.0775  161.4567 C.ar    1  UNL1        0.0064
     31 C         139.3780  142.1239  159.9948 C.ar    1  UNL1        0.0235
     32 C         138.6982  140.9565  159.3429 C.ar    1  UNL1        0.1070
     33 N         138.3510  139.7427  160.1528 N.ar    1  UNL1       -0.2330
     34 S         138.3365  138.4824  162.4248 S.3     1  UNL1       -0.0950
     35 C         139.7515  137.9222  164.5304 C.3     1  UNL1        0.0130
     36 C         139.4223  137.6865  163.0861 C.3     1  UNL1        0.0637
     37 S         138.3656  141.0029  157.8809 S.3     1  UNL1       -0.0950
     38 C         137.7007  142.2161  157.3012 C.3     1  UNL1        0.0637
     39 C         136.7936  142.0793  156.1145 C.3     1  UNL1        0.0130
     40 C         139.2330  144.1249  161.7396 C.3     1  UNL1        0.0491
     41 C         138.4984  144.8838  162.8046 C.3     1  UNL1        0.0750
     42 N         138.2542  144.2518  164.1429 N.3     1  UNL1       -0.2702
     43 C         138.8325  144.8700  165.3811 C.3     1  UNL1        0.0897
     44 C         137.4317  143.0014  164.2429 C.3     1  UNL1        0.0897
@<TRIPOS>BOND
     1    35    36    1
     2    36    34    1
     3    34    28    1
     4    28    29   ar
     5    29    30   ar
     6    30    25    1
     7    25    26    1
     8    25    40    1
     9    40    41    1
    10    41    42    1
    11    42    43    1
    12    42    44    1
    13    25     1    1
    14     1     2    1
    15     2     3   ar
    16     3     4   ar
    17     4     5   ar
    18     5     6   ar
    19     6    12    1
    20    12    13    3
    21     6     7   ar
    22     7     8   ar
    23     8     9   ar
    24     9    10   ar
    25    10    11   ar
    26    11    14    1
    27    14    15    1
    28     1    16    1
    29    16    17   ar
    30    17    18   ar
    31    18    19   ar
    32    19    20   ar
    33    20    21   ar
    34    21    22    1
    35    22    23    1
    36    23    24    1
    37    30    31   ar
    38    31    32   ar
    39    32    37    1
    40    37    38    1
    41    38    39    1
    42    32    33   ar
    43    33    28   ar
    44    11     2   ar
    45    21    16   ar
    46     9     4   ar
    47    24    20    1
    48    26    27    1
@<TRIPOS>MOLECULE
*****
 44 48 0 0 0
SMALL
GASTEIGER

@<TRIPOS>ATOM
      1 C         142.1637  141.6149  162.7722 C.3     1  UNL1        0.0807
      2 C         142.4360  141.8083  164.2346 C.ar    1  UNL1        0.0375
      3 C         141.5745  141.1249  165.2547 C.ar    1  UNL1        0.0023
      4 C         141.8467  141.3182  166.7171 C.ar    1  UNL1        0.0183
      5 C         140.9852  140.6348  167.7372 C.ar    1  UNL1        0.0118
      6 C         141.2575  140.8282  169.1995 C.ar    1  UNL1        0.0685
      7 C         142.3913  141.7050  169.6417 C.ar    1  UNL1        0.0118
      8 C         143.2528  142.3885  168.6217 C.ar    1  UNL1        0.0199
      9 C         142.9806  142.1951  167.1594 C.ar    1  UNL1        0.0844
     10 N         143.8421  142.8785  166.1392 N.ar    1  UNL1       -0.2119
     11 C         143.5698  142.6851  164.6769 C.ar    1  UNL1        0.2211
     12 C         140.3959  140.1447  170.2197 C.1     1  UNL1        0.1004
     13 N         139.5344  139.4613  171.2397 N.1     1  UNL1       -0.1908
     14 O         144.4314  143.3686  163.6567 O.3     1  UNL1       -0.4563
     15 C         144.1346  144.7815  163.2499 C.3     1  UNL1        0.2542
     16 C         141.5003  142.7039  161.9824 C.ar    1  UNL1        0.0215
     17 C         142.1546  143.2360  160.7420 C.ar    1  UNL1       -0.0007
     18 C         141.4911  144.3250  159.9522 C.ar    1  UNL1        0.0030
     19 C         140.1733  144.8820  160.4028 C.ar    1  UNL1        0.0402
     20 C         139.5189  144.3499  161.6433 C.ar    1  UNL1        0.1761
     21 C         140.1824  143.2609  162.4331 C.ar    1  UNL1        0.1728
     22 O         139.3045  142.9381  163.6057 O.3     1  UNL1       -0.4349
     23 C         138.0985  143.8275  163.5406 C.3     1  UNL1        0.4294
     24 O         138.2310  144.7001  162.3278 O.3     1  UNL1       -0.4346
     25 C         142.5550  140.3325  162.0997 C.3     1  UNL1        0.1160
     26 O         143.9830  140.7897  162.0586 O.3     1  UNL1       -0.3820
     27 H         144.5294  140.1064  161.6397 H       1  UNL1        0.2107
     28 C         139.1787  138.6906  163.3860 C.ar    1  UNL1        0.1070
     29 C         140.6067  139.1478  163.3449 C.ar    1  UNL1        0.0235
     30 C         141.1270  139.8753  162.1408 C.ar    1  UNL1        0.0064
     31 C         140.2192  140.1455  160.9776 C.ar    1  UNL1        0.0235
     32 C         138.7912  139.6883  161.0187 C.ar    1  UNL1        0.1070
     33 N         138.2709  138.9608  162.2229 N.ar    1  UNL1       -0.2330
     34 S         138.6585  137.9631  164.5903 S.3     1  UNL1       -0.0950
     35 C         137.6488  138.4418  166.9358 C.3     1  UNL1        0.0130
     36 C         138.7696  138.5875  165.9496 C.3     1  UNL1        0.0637
     37 S         137.8834  139.9585  159.8555 S.3     1  UNL1       -0.0950
     38 C         138.2021  141.0677  158.8973 C.3     1  UNL1        0.0637
     39 C         138.3218  140.7800  157.4300 C.3     1  UNL1        0.0130
     40 C         142.9463  139.0501  161.4271 C.3     1  UNL1        0.0491
     41 C         143.9941  139.0554  160.3539 C.3     1  UNL1        0.0750
     42 N         143.6481  139.5198  158.9702 N.3     1  UNL1       -0.2702
     43 C         142.7899  138.6655  158.0850 C.3     1  UNL1        0.0897
     44 C         144.1604  140.8385  158.4716 C.3     1  UNL1        0.0897
@<TRIPOS>BOND
     1    35    36    1
     2    36    34    1
     3    34    28    1
     4    28    29   ar
     5    29    30   ar
     6    30    25    1
     7    25    26    1
     8    25    40    1
     9    40    41    1
    10    41    42    1
    11    42    43    1
    12    42    44    1
    13    25     1    1
    14     1     2    1
    15     2     3   ar
    16     3     4   ar
    17     4     5   ar
    18     5     6   ar
    19     6    12    1
    20    12    13    3
    21     6     7   ar
    22     7     8   ar
    23     8     9   ar
    24     9    10   ar
    25    10    11   ar
    26    11    14    1
    27    14    15    1
    28     1    16    1
    29    16    17   ar
    30    17    18   ar
    31    18    19   ar
    32    19    20   ar
    33    20    21   ar
    34    21    22    1
    35    22    23    1
    36    23    24    1
    37    30    31   ar
    38    31    32   ar
    39    32    37    1
    40    37    38    1
    41    38    39    1
    42    32    33   ar
    43    33    28   ar
    44    11     2   ar
    45    21    16   ar
    46     9     4   ar
    47    24    20    1
    48    26    27    1
@<TRIPOS>MOLECULE
*****
 44 48 0 0 0
SMALL
GASTEIGER

@<TRIPOS>ATOM
      1 C         141.7863  140.5751  163.3510 C.3     1  UNL1        0.0807
      2 C         141.9863  140.5145  164.8364 C.ar    1  UNL1        0.0375
      3 C         141.1220  141.3389  165.7438 C.ar    1  UNL1        0.0023
      4 C         141.3220  141.2783  167.2292 C.ar    1  UNL1        0.0183
      5 C         140.4577  142.1027  168.1366 C.ar    1  UNL1        0.0118
      6 C         140.6578  142.0421  169.6219 C.ar    1  UNL1        0.0685
      7 C         141.7221  141.1572  170.1999 C.ar    1  UNL1        0.0118
      8 C         142.5864  140.3328  169.2925 C.ar    1  UNL1        0.0199
      9 C         142.3864  140.3934  167.8072 C.ar    1  UNL1        0.0844
     10 N         143.2507  139.5690  166.8998 N.ar    1  UNL1       -0.2119
     11 C         143.0507  139.6296  165.4144 C.ar    1  UNL1        0.2211
     12 C         139.7934  142.8665  170.5294 C.1     1  UNL1        0.1004
     13 N         138.9292  143.6908  171.4368 N.1     1  UNL1       -0.1908
     14 O         143.9150  138.8052  164.5070 O.3     1  UNL1       -0.4563
     15 C         145.2998  139.2692  164.1647 C.3     1  UNL1        0.2542
     16 C         142.7299  141.3712  162.4990 C.ar    1  UNL1        0.0215
     17 C         143.3550  140.7463  161.2871 C.ar    1  UNL1       -0.0007
     18 C         144.2986  141.5424  160.4351 C.ar    1  UNL1        0.0030
     19 C         144.6171  142.9633  160.7950 C.ar    1  UNL1        0.0402
     20 C         143.9919  143.5882  162.0070 C.ar    1  UNL1        0.1761
     21 C         143.0484  142.7921  162.8590 C.ar    1  UNL1        0.1728
     22 O         142.5884  143.6694  163.9854 O.3     1  UNL1       -0.4349
     23 C         143.2477  145.0077  163.8295 C.3     1  UNL1        0.4294
     24 O         144.1151  144.9575  162.6068 O.3     1  UNL1       -0.4346
     25 C         140.6428  139.8395  162.7176 C.3     1  UNL1        0.1160
     26 O         141.2080  138.5392  163.2071 O.3     1  UNL1       -0.3820
     27 H         140.6327  137.8104  162.9265 H       1  UNL1        0.2107
     28 C         138.9430  143.4257  162.7157 C.ar    1  UNL1        0.1070
     29 C         139.5083  142.1254  163.2052 C.ar    1  UNL1        0.0235
     30 C         140.0775  141.1398  162.2282 C.ar    1  UNL1        0.0064
     31 C         140.0814  141.4546  160.7616 C.ar    1  UNL1        0.0235
     32 C         139.5161  142.7550  160.2721 C.ar    1  UNL1        0.1070
     33 N         138.9469  143.7405  161.2492 N.ar    1  UNL1       -0.2330
     34 S         138.3739  144.4113  163.6929 S.3     1  UNL1       -0.0950
     35 C         138.3407  145.2557  166.1497 C.3     1  UNL1        0.0130
     36 C         139.0912  144.6905  164.9803 C.3     1  UNL1        0.0637
     37 S         139.5200  143.0697  158.8055 S.3     1  UNL1       -0.0950
     38 C         140.3820  144.1785  158.2787 C.3     1  UNL1        0.0637
     39 C         140.9347  144.1019  156.8863 C.3     1  UNL1        0.0130
     40 C         139.4992  139.1039  162.0843 C.3     1  UNL1        0.0491
     41 C         138.3516  138.6327  162.9274 C.3     1  UNL1        0.0750
     42 N         138.4794  138.6077  164.4218 N.3     1  UNL1       -0.2702
     43 C         139.0155  137.3866  165.1084 C.3     1  UNL1        0.0897
     44 C         138.0711  139.8039  165.2295 C.3     1  UNL1        0.0897
@<TRIPOS>BOND
     1    35    36    1
     2    36    34    1
     3    34    28    1
     4    28    29   ar
     5    29    30   ar
     6    30    25    1
     7    25    26    1
     8    25    40    1
     9    40    41    1
    10    41    42    1
    11    42    43    1
    12    42    44    1
    13    25     1    1
    14     1     2    1
    15     2     3   ar
    16     3     4   ar
    17     4     5   ar
    18     5     6   ar
    19     6    12    1
    20    12    13    3
    21     6     7   ar
    22     7     8   ar
    23     8     9   ar
    24     9    10   ar
    25    10    11   ar
    26    11    14    1
    27    14    15    1
    28     1    16    1
    29    16    17   ar
    30    17    18   ar
    31    18    19   ar
    32    19    20   ar
    33    20    21   ar
    34    21    22    1
    35    22    23    1
    36    23    24    1
    37    30    31   ar
    38    31    32   ar
    39    32    37    1
    40    37    38    1
    41    38    39    1
    42    32    33   ar
    43    33    28   ar
    44    11     2   ar
    45    21    16   ar
    46     9     4   ar
    47    24    20    1
    48    26    27    1
