@<TRIPOS>MOLECULE
*****
 22 23 0 0 0
SMALL
GASTEIGER

@<TRIPOS>ATOM
      1 C         141.5033  141.8212  166.6726 C.2     1  UNL1        0.2406
      2 O         140.7891  142.2130  165.4131 O.2     1  UNL1       -0.2733
      3 N         142.9017  141.2826  166.6054 N.am    1  UNL1       -0.2833
      4 H         143.3704  141.0255  167.4321 H       1  UNL1        0.1549
      5 C         143.5858  141.1358  165.2786 C.ar    1  UNL1        0.0423
      6 C         143.4787  139.8473  164.5181 C.ar    1  UNL1       -0.0087
      7 C         142.6875  138.7057  165.0843 C.3     1  UNL1        0.0323
      8 C         144.1629  139.7005  163.1912 C.ar    1  UNL1       -0.0031
      9 C         144.9542  140.8421  162.6250 C.ar    1  UNL1       -0.0006
     10 C         145.0612  142.1306  163.3856 C.ar    1  UNL1       -0.0031
     11 C         144.3771  142.2774  164.7123 C.ar    1  UNL1       -0.0087
     12 C         144.4842  143.5659  165.4729 C.3     1  UNL1        0.0323
     13 N         139.9833  140.8462  168.5405 N.3     1  UNL1       -0.2666
     14 C         139.2992  140.9931  169.8673 C.3     1  UNL1        0.0725
     15 C         139.4510  142.2618  170.6530 C.3     1  UNL1        0.0174
     16 C         140.2868  143.3837  170.1120 C.3     1  UNL1        0.0033
     17 C         140.9709  143.2368  168.7852 C.3     1  UNL1        0.0254
     18 C         140.8192  141.9681  167.9995 C.3     1  UNL1        0.1351
     19 C         139.8315  139.5775  167.7548 C.3     1  UNL1        0.0725
     20 C         138.6044  139.3535  166.9218 C.3     1  UNL1        0.0173
     21 C         139.0003  137.6323  165.0163 C.3     1  UNL1        0.0000
     22 C         138.7366  139.0405  165.4608 C.3     1  UNL1        0.0014
@<TRIPOS>BOND
     1    21    22    1
     2    22    20    1
     3    20    19    1
     4    19    13    1
     5    13    14    1
     6    14    15    1
     7    15    16    1
     8    16    17    1
     9    17    18    1
    10    18     1    1
    11     1     2    2
    12     1     3   am
    13     3     5    1
    14     5     6   ar
    15     6     7    1
    16     6     8   ar
    17     8     9   ar
    18     9    10   ar
    19    10    11   ar
    20    11    12    1
    21    18    13    1
    22    11     5   ar
    23     3     4    1
@<TRIPOS>MOLECULE
*****
 22 23 0 0 0
SMALL
GASTEIGER

@<TRIPOS>ATOM
      1 C         140.6708  142.4829  165.9301 C.2     1  UNL1        0.2406
      2 O         142.1361  142.7708  165.7892 O.2     1  UNL1       -0.2733
      3 N         140.1489  141.8445  167.1831 N.am    1  UNL1       -0.2833
      4 H         139.1871  141.6556  167.2756 H       1  UNL1        0.1549
      5 C         141.0924  141.4939  168.2953 C.ar    1  UNL1        0.0423
      6 C         141.9037  140.2344  168.2215 C.ar    1  UNL1       -0.0087
      7 C         141.7715  139.3255  167.0356 C.3     1  UNL1        0.0323
      8 C         142.8472  139.8838  169.3337 C.ar    1  UNL1       -0.0031
      9 C         142.9794  140.7927  170.5196 C.ar    1  UNL1       -0.0006
     10 C         142.1681  142.0522  170.5934 C.ar    1  UNL1       -0.0031
     11 C         141.2246  142.4028  169.4812 C.ar    1  UNL1       -0.0087
     12 C         140.4133  143.6623  169.5550 C.3     1  UNL1        0.0323
     13 N         139.3643  141.8036  163.7896 N.3     1  UNL1       -0.2666
     14 C         138.4208  142.1543  162.6775 C.3     1  UNL1        0.0725
     15 C         137.8401  143.5348  162.5938 C.3     1  UNL1        0.0174
     16 C         138.2030  144.5647  163.6222 C.3     1  UNL1        0.0033
     17 C         139.1465  144.2140  164.7343 C.3     1  UNL1        0.0254
     18 C         139.7272  142.8335  164.8180 C.3     1  UNL1        0.1351
     19 C         139.9450  140.4231  163.8733 C.3     1  UNL1        0.0725
     20 C         139.1321  139.3011  164.4480 C.3     1  UNL1        0.0173
     21 C         138.0391  138.7631  166.7427 C.3     1  UNL1        0.0000
     22 C         138.0913  139.5862  165.4898 C.3     1  UNL1        0.0014
@<TRIPOS>BOND
     1    21    22    1
     2    22    20    1
     3    20    19    1
     4    19    13    1
     5    13    14    1
     6    14    15    1
     7    15    16    1
     8    16    17    1
     9    17    18    1
    10    18     1    1
    11     1     2    2
    12     1     3   am
    13     3     5    1
    14     5     6   ar
    15     6     7    1
    16     6     8   ar
    17     8     9   ar
    18     9    10   ar
    19    10    11   ar
    20    11    12    1
    21    18    13    1
    22    11     5   ar
    23     3     4    1
@<TRIPOS>MOLECULE
*****
 22 23 0 0 0
SMALL
GASTEIGER

@<TRIPOS>ATOM
      1 C         140.6603  142.4926  165.9387 C.2     1  UNL1        0.2406
      2 O         142.1251  142.7800  165.7920 O.2     1  UNL1       -0.2733
      3 N         140.1436  141.8521  167.1928 N.am    1  UNL1       -0.2833
      4 H         139.1821  141.6634  167.2890 H       1  UNL1        0.1549
      5 C         141.0917  141.4991  168.3002 C.ar    1  UNL1        0.0423
      6 C         141.2207  142.3998  169.4927 C.ar    1  UNL1       -0.0087
      7 C         140.4015  143.6534  169.5778 C.3     1  UNL1        0.0323
      8 C         142.1689  142.0467  170.6002 C.ar    1  UNL1       -0.0031
      9 C         142.9880  140.7930  170.5151 C.ar    1  UNL1       -0.0006
     10 C         142.8590  139.8923  169.3225 C.ar    1  UNL1       -0.0031
     11 C         141.9109  140.2453  168.2151 C.ar    1  UNL1       -0.0087
     12 C         141.7819  139.3447  167.0226 C.3     1  UNL1        0.0323
     13 N         139.3525  141.8208  163.7965 N.3     1  UNL1       -0.2666
     14 C         138.4044  142.1738  162.6892 C.3     1  UNL1        0.0725
     15 C         137.8157  143.5516  162.6165 C.3     1  UNL1        0.0174
     16 C         138.1752  144.5763  163.6512 C.3     1  UNL1        0.0033
     17 C         139.1234  144.2233  164.7585 C.3     1  UNL1        0.0254
     18 C         139.7121  142.8456  164.8312 C.3     1  UNL1        0.1351
     19 C         139.9412  140.4431  163.8692 C.3     1  UNL1        0.0725
     20 C         139.1279  139.3079  164.4168 C.3     1  UNL1        0.0173
     21 C         138.0733  138.8169  166.7399 C.3     1  UNL1        0.0000
     22 C         138.0672  139.5723  165.4439 C.3     1  UNL1        0.0014
@<TRIPOS>BOND
     1    21    22    1
     2    22    20    1
     3    20    19    1
     4    19    13    1
     5    13    14    1
     6    14    15    1
     7    15    16    1
     8    16    17    1
     9    17    18    1
    10    18     1    1
    11     1     2    2
    12     1     3   am
    13     3     5    1
    14     5     6   ar
    15     6     7    1
    16     6     8   ar
    17     8     9   ar
    18     9    10   ar
    19    10    11   ar
    20    11    12    1
    21    18    13    1
    22    11     5   ar
    23     3     4    1
@<TRIPOS>MOLECULE
*****
 22 23 0 0 0
SMALL
GASTEIGER

@<TRIPOS>ATOM
      1 C         142.6920  139.6900  166.4922 C.2     1  UNL1        0.2406
      2 O         143.1830  138.7746  167.5742 O.2     1  UNL1       -0.2733
      3 N         141.7753  140.8280  166.8312 N.am    1  UNL1       -0.2833
      4 H         141.4530  141.4288  166.1210 H       1  UNL1        0.1549
      5 C         141.3497  141.0504  168.2522 C.ar    1  UNL1        0.0423
      6 C         142.2254  141.8355  169.1832 C.ar    1  UNL1       -0.0087
      7 C         143.5266  142.3982  168.6933 C.3     1  UNL1        0.0323
      8 C         141.7997  142.0580  170.6043 C.ar    1  UNL1       -0.0031
      9 C         140.4985  141.4953  171.0943 C.ar    1  UNL1       -0.0006
     10 C         139.6228  140.7102  170.1633 C.ar    1  UNL1       -0.0031
     11 C         140.0484  140.4878  168.7423 C.ar    1  UNL1       -0.0087
     12 C         139.1728  139.7026  167.8112 C.3     1  UNL1        0.0323
     13 N         142.3839  138.4787  164.2145 N.3     1  UNL1       -0.2666
     14 C         142.8095  138.2563  162.7935 C.3     1  UNL1        0.0725
     15 C         143.9688  139.0228  162.2290 C.3     1  UNL1        0.0174
     16 C         144.7024  140.0117  163.0856 C.3     1  UNL1        0.0033
     17 C         144.2768  140.2341  164.5067 C.3     1  UNL1        0.0254
     18 C         143.1176  139.4676  165.0711 C.3     1  UNL1        0.1351
     19 C         141.2247  137.7122  164.7789 C.3     1  UNL1        0.0725
     20 C         139.8212  138.1647  164.5042 C.3     1  UNL1        0.0173
     21 C         139.0993  138.0910  162.0095 C.3     1  UNL1        0.0000
     22 C         139.0312  137.5293  163.3987 C.3     1  UNL1        0.0014
@<TRIPOS>BOND
     1    21    22    1
     2    22    20    1
     3    20    19    1
     4    19    13    1
     5    13    14    1
     6    14    15    1
     7    15    16    1
     8    16    17    1
     9    17    18    1
    10    18     1    1
    11     1     2    2
    12     1     3   am
    13     3     5    1
    14     5     6   ar
    15     6     7    1
    16     6     8   ar
    17     8     9   ar
    18     9    10   ar
    19    10    11   ar
    20    11    12    1
    21    18    13    1
    22    11     5   ar
    23     3     4    1
@<TRIPOS>MOLECULE
*****
 22 23 0 0 0
SMALL
GASTEIGER

@<TRIPOS>ATOM
      1 C         139.7161  139.8901  166.2570 C.2     1  UNL1        0.2406
      2 O         138.9654  139.5446  167.5088 O.2     1  UNL1       -0.2733
      3 N         140.9879  140.6811  166.3392 N.am    1  UNL1       -0.2833
      4 H         141.4806  140.9079  165.5176 H       1  UNL1        0.1549
      5 C         141.5091  141.1267  167.6733 C.ar    1  UNL1        0.0423
      6 C         141.0481  142.4268  168.2624 C.ar    1  UNL1       -0.0087
      7 C         140.0659  143.2814  167.5175 C.3     1  UNL1        0.0323
      8 C         141.5693  142.8724  169.5966 C.ar    1  UNL1       -0.0031
      9 C         142.5515  142.0178  170.3415 C.ar    1  UNL1       -0.0006
     10 C         143.0124  140.7176  169.7524 C.ar    1  UNL1       -0.0031
     11 C         142.4913  140.2721  168.4183 C.ar    1  UNL1       -0.0087
     12 C         142.9522  138.9719  167.8292 C.3     1  UNL1        0.0323
     13 N         138.4178  140.3982  164.0646 N.3     1  UNL1       -0.2666
     14 C         137.8967  139.9527  162.7305 C.3     1  UNL1        0.0725
     15 C         138.1527  138.5534  162.2546 C.3     1  UNL1        0.0174
     16 C         138.9298  137.5997  163.1128 C.3     1  UNL1        0.0033
     17 C         139.4509  138.0452  164.4469 C.3     1  UNL1        0.0254
     18 C         139.1949  139.4445  164.9228 C.3     1  UNL1        0.1351
     19 C         138.1618  141.7975  164.5405 C.3     1  UNL1        0.0725
     20 C         137.4738  142.7814  163.6414 C.3     1  UNL1        0.0173
     21 C         138.8786  144.8225  164.4228 C.3     1  UNL1        0.0000
     22 C         138.1145  144.1058  163.3492 C.3     1  UNL1        0.0014
@<TRIPOS>BOND
     1    21    22    1
     2    22    20    1
     3    20    19    1
     4    19    13    1
     5    13    14    1
     6    14    15    1
     7    15    16    1
     8    16    17    1
     9    17    18    1
    10    18     1    1
    11     1     2    2
    12     1     3   am
    13     3     5    1
    14     5     6   ar
    15     6     7    1
    16     6     8   ar
    17     8     9   ar
    18     9    10   ar
    19    10    11   ar
    20    11    12    1
    21    18    13    1
    22    11     5   ar
    23     3     4    1
@<TRIPOS>MOLECULE
*****
 22 23 0 0 0
SMALL
GASTEIGER

@<TRIPOS>ATOM
      1 C         142.8367  139.7728  166.5143 C.2     1  UNL1        0.2406
      2 O         143.2876  138.7838  167.5480 O.2     1  UNL1       -0.2733
      3 N         141.9057  140.8851  166.8963 N.am    1  UNL1       -0.2833
      4 H         141.6097  141.5342  166.2179 H       1  UNL1        0.1549
      5 C         141.4256  141.0085  168.3121 C.ar    1  UNL1        0.0423
      6 C         140.1091  140.4115  168.7123 C.ar    1  UNL1       -0.0087
      7 C         139.2725  139.6911  167.6969 C.3     1  UNL1        0.0323
      8 C         139.6290  140.5349  170.1281 C.ar    1  UNL1       -0.0031
      9 C         140.4656  141.2553  171.1436 C.ar    1  UNL1       -0.0006
     10 C         141.7821  141.8523  170.7433 C.ar    1  UNL1       -0.0031
     11 C         142.2622  141.7289  169.3276 C.ar    1  UNL1       -0.0087
     12 C         143.5787  142.3259  168.9273 C.3     1  UNL1        0.0323
     13 N         142.7398  138.5959  164.2001 N.3     1  UNL1       -0.2666
     14 C         143.2198  138.4726  162.7843 C.3     1  UNL1        0.0725
     15 C         144.2768  139.4028  162.2671 C.3     1  UNL1        0.0174
     16 C         144.8537  140.4563  163.1655 C.3     1  UNL1        0.0033
     17 C         144.3736  140.5796  164.5812 C.3     1  UNL1        0.0254
     18 C         143.3167  139.6494  165.0985 C.3     1  UNL1        0.1351
     19 C         141.6828  137.6657  164.7173 C.3     1  UNL1        0.0725
     20 C         140.4411  137.4197  163.9126 C.3     1  UNL1        0.0173
     21 C         138.4348  139.0477  163.6403 C.3     1  UNL1        0.0000
     22 C         139.1205  137.9453  164.3917 C.3     1  UNL1        0.0014
@<TRIPOS>BOND
     1    21    22    1
     2    22    20    1
     3    20    19    1
     4    19    13    1
     5    13    14    1
     6    14    15    1
     7    15    16    1
     8    16    17    1
     9    17    18    1
    10    18     1    1
    11     1     2    2
    12     1     3   am
    13     3     5    1
    14     5     6   ar
    15     6     7    1
    16     6     8   ar
    17     8     9   ar
    18     9    10   ar
    19    10    11   ar
    20    11    12    1
    21    18    13    1
    22    11     5   ar
    23     3     4    1
@<TRIPOS>MOLECULE
*****
 22 23 0 0 0
SMALL
GASTEIGER

@<TRIPOS>ATOM
      1 C         140.4728  141.8670  166.2094 C.2     1  UNL1        0.2406
      2 O         141.1625  142.3426  164.9653 O.2     1  UNL1       -0.2733
      3 N         139.2724  140.9734  166.1066 N.am    1  UNL1       -0.2833
      4 H         138.8197  140.6612  166.9232 H       1  UNL1        0.1549
      5 C         138.7618  140.5553  164.7596 C.ar    1  UNL1        0.0423
      6 C         137.9723  141.5194  163.9245 C.ar    1  UNL1       -0.0087
      7 C         137.6935  142.9014  164.4364 C.3     1  UNL1        0.0323
      8 C         137.4617  141.1013  162.5774 C.ar    1  UNL1       -0.0031
      9 C         137.7405  139.7192  162.0655 C.ar    1  UNL1       -0.0006
     10 C         138.5300  138.7552  162.9006 C.ar    1  UNL1       -0.0031
     11 C         139.0406  139.1732  164.2476 C.ar    1  UNL1       -0.0087
     12 C         139.8301  138.2092  165.0827 C.3     1  UNL1        0.0323
     13 N         142.2858  141.7429  168.0663 N.3     1  UNL1       -0.2666
     14 C         142.7963  142.1609  169.4133 C.3     1  UNL1        0.0725
     15 C         142.0045  143.1210  170.2506 C.3     1  UNL1        0.0174
     16 C         140.7021  143.6632  169.7409 C.3     1  UNL1        0.0033
     17 C         140.1916  143.2452  168.3939 C.3     1  UNL1        0.0254
     18 C         140.9834  142.2850  167.5565 C.3     1  UNL1        0.1351
     19 C         143.0776  140.7827  167.2290 C.3     1  UNL1        0.0725
     20 C         142.8483  139.3063  167.3616 C.3     1  UNL1        0.0173
     21 C         143.9285  138.9206  165.0304 C.3     1  UNL1        0.0000
     22 C         143.3446  138.3717  166.2984 C.3     1  UNL1        0.0014
@<TRIPOS>BOND
     1    21    22    1
     2    22    20    1
     3    20    19    1
     4    19    13    1
     5    13    14    1
     6    14    15    1
     7    15    16    1
     8    16    17    1
     9    17    18    1
    10    18     1    1
    11     1     2    2
    12     1     3   am
    13     3     5    1
    14     5     6   ar
    15     6     7    1
    16     6     8   ar
    17     8     9   ar
    18     9    10   ar
    19    10    11   ar
    20    11    12    1
    21    18    13    1
    22    11     5   ar
    23     3     4    1
@<TRIPOS>MOLECULE
*****
 22 23 0 0 0
SMALL
GASTEIGER

@<TRIPOS>ATOM
      1 C         141.7198  142.1293  165.8521 C.2     1  UNL1        0.2406
      2 O         142.2543  141.4415  164.6310 O.2     1  UNL1       -0.2733
      3 N         140.7868  143.2949  165.7085 N.am    1  UNL1       -0.2833
      4 H         140.4360  143.7463  166.5100 H       1  UNL1        0.1549
      5 C         140.3882  143.7728  164.3437 C.ar    1  UNL1        0.0423
      6 C         141.3152  144.6505  163.5560 C.ar    1  UNL1       -0.0087
      7 C         142.6407  145.0503  164.1332 C.3     1  UNL1        0.0323
      8 C         140.9165  145.1284  162.1912 C.ar    1  UNL1       -0.0031
      9 C         139.5910  144.7286  161.6140 C.ar    1  UNL1       -0.0006
     10 C         138.6641  143.8510  162.4017 C.ar    1  UNL1       -0.0031
     11 C         139.0626  143.3731  163.7665 C.ar    1  UNL1       -0.0087
     12 C         138.1357  142.4954  164.5542 C.3     1  UNL1        0.0323
     13 N         141.5248  140.3912  167.7734 N.3     1  UNL1       -0.2666
     14 C         141.9234  139.9134  169.1382 C.3     1  UNL1        0.0725
     15 C         142.9155  140.6957  169.9467 C.3     1  UNL1        0.0174
     16 C         143.5091  141.9559  169.3903 C.3     1  UNL1        0.0033
     17 C         143.1105  142.4337  168.0255 C.3     1  UNL1        0.0254
     18 C         142.1184  141.6514  167.2170 C.3     1  UNL1        0.1351
     19 C         140.5327  139.6089  166.9649 C.3     1  UNL1        0.0725
     20 C         139.0657  139.7358  167.2509 C.3     1  UNL1        0.0173
     21 C         138.5563  137.8408  165.5480 C.3     1  UNL1        0.0000
     22 C         138.0930  138.7864  166.6164 C.3     1  UNL1        0.0014
@<TRIPOS>BOND
     1    21    22    1
     2    22    20    1
     3    20    19    1
     4    19    13    1
     5    13    14    1
     6    14    15    1
     7    15    16    1
     8    16    17    1
     9    17    18    1
    10    18     1    1
    11     1     2    2
    12     1     3   am
    13     3     5    1
    14     5     6   ar
    15     6     7    1
    16     6     8   ar
    17     8     9   ar
    18     9    10   ar
    19    10    11   ar
    20    11    12    1
    21    18    13    1
    22    11     5   ar
    23     3     4    1
@<TRIPOS>MOLECULE
*****
 22 23 0 0 0
SMALL
GASTEIGER

@<TRIPOS>ATOM
      1 C         140.4604  141.7371  166.0259 C.2     1  UNL1        0.2406
      2 O         141.2671  142.0468  164.7998 O.2     1  UNL1       -0.2733
      3 N         139.1780  140.9683  165.9054 N.am    1  UNL1       -0.2833
      4 H         138.6485  140.7651  166.7102 H       1  UNL1        0.1549
      5 C         138.7023  140.5094  164.5590 C.ar    1  UNL1        0.0423
      6 C         138.8911  139.0804  164.1438 C.ar    1  UNL1       -0.0087
      7 C         139.5556  138.1104  165.0752 C.3     1  UNL1        0.0323
      8 C         138.4153  138.6215  162.7973 C.ar    1  UNL1       -0.0031
      9 C         137.7508  139.5915  161.8660 C.ar    1  UNL1       -0.0006
     10 C         137.5620  141.0205  162.2811 C.ar    1  UNL1       -0.0031
     11 C         138.0377  141.4794  163.6276 C.ar    1  UNL1       -0.0087
     12 C         137.8489  142.9084  164.0427 C.3     1  UNL1        0.0323
     13 N         142.2474  141.7065  167.9115 N.3     1  UNL1       -0.2666
     14 C         142.7230  142.1654  169.2580 C.3     1  UNL1        0.0725
     15 C         141.8873  143.1139  170.0654 C.3     1  UNL1        0.0174
     16 C         140.5759  143.6035  169.5263 C.3     1  UNL1        0.0033
     17 C         140.1003  143.1445  168.1798 C.3     1  UNL1        0.0254
     18 C         140.9361  142.1960  167.3724 C.3     1  UNL1        0.1351
     19 C         143.0831  140.7580  167.1041 C.3     1  UNL1        0.0725
     20 C         142.8743  139.2782  167.2330 C.3     1  UNL1        0.0173
     21 C         143.7096  138.9330  164.7972 C.3     1  UNL1        0.0000
     22 C         143.0881  138.3845  166.0474 C.3     1  UNL1        0.0014
@<TRIPOS>BOND
     1    21    22    1
     2    22    20    1
     3    20    19    1
     4    19    13    1
     5    13    14    1
     6    14    15    1
     7    15    16    1
     8    16    17    1
     9    17    18    1
    10    18     1    1
    11     1     2    2
    12     1     3   am
    13     3     5    1
    14     5     6   ar
    15     6     7    1
    16     6     8   ar
    17     8     9   ar
    18     9    10   ar
    19    10    11   ar
    20    11    12    1
    21    18    13    1
    22    11     5   ar
    23     3     4    1
