@<TRIPOS>MOLECULE
*****
 26 28 0 0 0
SMALL
GASTEIGER

@<TRIPOS>ATOM
      1 C         138.0367  139.4003  166.0130 C.3     1  UNL1        0.1126
      2 C         138.5469  138.9502  167.3498 C.3     1  UNL1        0.0906
      3 N         138.9839  139.9635  168.3658 N.3     1  UNL1       -0.2960
      4 H         138.8521  140.8817  167.9415 H       1  UNL1        0.1233
      5 C         140.3842  139.9316  168.9027 C.3     1  UNL1        0.0689
      6 C         141.5276  140.3824  168.0427 C.3     1  UNL1        0.0218
      7 C         142.2429  139.3957  167.1684 C.3     1  UNL1        0.0278
      8 C         144.9966  140.8502  163.9200 C.ar    1  UNL1       -0.0000
      9 C         144.9480  139.3911  164.2645 C.ar    1  UNL1       -0.0003
     10 C         144.0301  138.9063  165.3472 C.ar    1  UNL1       -0.0043
     11 C         143.1608  139.8805  166.0856 C.ar    1  UNL1       -0.0221
     12 C         143.2095  141.3396  165.7412 C.ar    1  UNL1       -0.0043
     13 C         144.1274  141.8245  164.6584 C.ar    1  UNL1       -0.0003
     14 N         138.9398  140.1503  165.0793 N.pl3   1  UNL1       -0.2854
     15 C         138.8428  141.6440  164.9803 C.ar    1  UNL1        0.0516
     16 C         139.7713  142.5104  165.7786 C.ar    1  UNL1        0.0148
     17 C         139.6742  144.0039  165.6796 C.ar    1  UNL1        0.0013
     18 C         138.6487  144.6311  164.7823 C.ar    1  UNL1        0.0001
     19 C         137.7202  143.7646  163.9841 C.ar    1  UNL1        0.0013
     20 C         137.8173  142.2711  164.0831 C.ar    1  UNL1        0.0148
     21 C         139.9399  139.4068  164.2446 C.ar    1  UNL1        0.0516
     22 C         140.1493  137.9368  164.4571 C.ar    1  UNL1        0.0148
     23 C         141.1495  137.1932  163.6223 C.ar    1  UNL1        0.0013
     24 C         141.9402  137.9197  162.5750 C.ar    1  UNL1        0.0001
     25 C         141.7309  139.3897  162.3625 C.ar    1  UNL1        0.0013
     26 C         140.7308  140.1333  163.1972 C.ar    1  UNL1        0.0148
@<TRIPOS>BOND
     1     8     9   ar
     2     9    10   ar
     3    10    11   ar
     4    11     7    1
     5     7     6    1
     6     6     5    1
     7     5     3    1
     8     3     2    1
     9     2     1    1
    10     1    14    1
    11    14    15    1
    12    15    16   ar
    13    16    17   ar
    14    17    18   ar
    15    18    19   ar
    16    19    20   ar
    17    14    21    1
    18    21    22   ar
    19    22    23   ar
    20    23    24   ar
    21    24    25   ar
    22    25    26   ar
    23    11    12   ar
    24    12    13   ar
    25    13     8   ar
    26    20    15   ar
    27    26    21   ar
    28     3     4    1
@<TRIPOS>MOLECULE
*****
 26 28 0 0 0
SMALL
GASTEIGER

@<TRIPOS>ATOM
      1 C         141.5091  142.8422  164.9689 C.3     1  UNL1        0.1126
      2 C         140.4294  143.7115  164.3957 C.3     1  UNL1        0.0906
      3 N         139.1331  143.8805  165.1311 N.3     1  UNL1       -0.2960
      4 H         139.1386  143.2062  165.8964 H       1  UNL1        0.1233
      5 C         137.8314  143.7030  164.4070 C.3     1  UNL1        0.0689
      6 C         137.7968  142.9816  163.0923 C.3     1  UNL1        0.0218
      7 C         137.3982  141.5365  163.0401 C.3     1  UNL1        0.0278
      8 C         140.1870  138.4969  161.2418 C.ar    1  UNL1       -0.0000
      9 C         140.6893  139.8700  161.5768 C.ar    1  UNL1       -0.0003
     10 C         139.7597  140.8832  162.1762 C.ar    1  UNL1       -0.0043
     11 C         138.3278  140.5233  162.4406 C.ar    1  UNL1       -0.0221
     12 C         137.8254  139.1502  162.1056 C.ar    1  UNL1       -0.0043
     13 C         138.7550  138.1371  161.5062 C.ar    1  UNL1       -0.0003
     14 N         141.1989  141.9104  166.1027 N.pl3   1  UNL1       -0.2854
     15 C         140.5003  140.6102  165.8352 C.ar    1  UNL1        0.0516
     16 C         141.2601  139.4571  165.2495 C.ar    1  UNL1        0.0148
     17 C         140.5615  138.1570  164.9820 C.ar    1  UNL1        0.0013
     18 C         139.1031  138.0099  165.3002 C.ar    1  UNL1        0.0001
     19 C         138.3432  139.1630  165.8859 C.ar    1  UNL1        0.0013
     20 C         139.0418  140.4631  166.1534 C.ar    1  UNL1        0.0148
     21 C         141.5872  142.2787  167.5039 C.ar    1  UNL1        0.0516
     22 C         140.5899  142.9378  168.4099 C.ar    1  UNL1        0.0148
     23 C         140.9783  143.3061  169.8112 C.ar    1  UNL1        0.0013
     24 C         142.3640  143.0153  170.3064 C.ar    1  UNL1        0.0001
     25 C         143.3613  142.3562  169.4004 C.ar    1  UNL1        0.0013
     26 C         142.9730  141.9879  167.9992 C.ar    1  UNL1        0.0148
@<TRIPOS>BOND
     1     8     9   ar
     2     9    10   ar
     3    10    11   ar
     4    11     7    1
     5     7     6    1
     6     6     5    1
     7     5     3    1
     8     3     2    1
     9     2     1    1
    10     1    14    1
    11    14    15    1
    12    15    16   ar
    13    16    17   ar
    14    17    18   ar
    15    18    19   ar
    16    19    20   ar
    17    14    21    1
    18    21    22   ar
    19    22    23   ar
    20    23    24   ar
    21    24    25   ar
    22    25    26   ar
    23    11    12   ar
    24    12    13   ar
    25    13     8   ar
    26    20    15   ar
    27    26    21   ar
    28     3     4    1
@<TRIPOS>MOLECULE
*****
 26 28 0 0 0
SMALL
GASTEIGER

@<TRIPOS>ATOM
      1 C         141.4882  142.7930  164.9192 C.3     1  UNL1        0.1126
      2 C         140.4354  143.7239  164.3949 C.3     1  UNL1        0.0906
      3 N         139.1351  143.8744  165.1274 N.3     1  UNL1       -0.2960
      4 H         139.1428  143.1908  165.8844 H       1  UNL1        0.1233
      5 C         137.8374  143.6964  164.3962 C.3     1  UNL1        0.0689
      6 C         137.8113  142.9809  163.0781 C.3     1  UNL1        0.0218
      7 C         137.4009  141.5395  163.0152 C.3     1  UNL1        0.0278
      8 C         140.1783  138.4856  161.2237 C.ar    1  UNL1       -0.0000
      9 C         140.6804  139.8640  161.5361 C.ar    1  UNL1       -0.0003
     10 C         139.7546  140.8820  162.1333 C.ar    1  UNL1       -0.0043
     11 C         138.3267  140.5216  162.4180 C.ar    1  UNL1       -0.0221
     12 C         137.8246  139.1431  162.1056 C.ar    1  UNL1       -0.0043
     13 C         138.7504  138.1251  161.5084 C.ar    1  UNL1       -0.0003
     14 N         141.1738  141.8716  166.0603 N.pl3   1  UNL1       -0.2854
     15 C         141.5630  142.2497  167.4587 C.ar    1  UNL1        0.0516
     16 C         140.5696  142.9248  168.3572 C.ar    1  UNL1        0.0148
     17 C         140.9588  143.3028  169.7555 C.ar    1  UNL1        0.0013
     18 C         142.3415  143.0058  170.2555 C.ar    1  UNL1        0.0001
     19 C         143.3349  142.3306  169.3571 C.ar    1  UNL1        0.0013
     20 C         142.9457  141.9526  167.9587 C.ar    1  UNL1        0.0148
     21 C         140.4702  140.5721  165.8029 C.ar    1  UNL1        0.0516
     22 C         141.2244  139.4131  165.2218 C.ar    1  UNL1        0.0148
     23 C         140.5207  138.1136  164.9644 C.ar    1  UNL1        0.0013
     24 C         139.0629  137.9731  165.2883 C.ar    1  UNL1        0.0001
     25 C         138.3086  139.1322  165.8694 C.ar    1  UNL1        0.0013
     26 C         139.0123  140.4316  166.1268 C.ar    1  UNL1        0.0148
@<TRIPOS>BOND
     1     8     9   ar
     2     9    10   ar
     3    10    11   ar
     4    11     7    1
     5     7     6    1
     6     6     5    1
     7     5     3    1
     8     3     2    1
     9     2     1    1
    10     1    14    1
    11    14    15    1
    12    15    16   ar
    13    16    17   ar
    14    17    18   ar
    15    18    19   ar
    16    19    20   ar
    17    14    21    1
    18    21    22   ar
    19    22    23   ar
    20    23    24   ar
    21    24    25   ar
    22    25    26   ar
    23    11    12   ar
    24    12    13   ar
    25    13     8   ar
    26    20    15   ar
    27    26    21   ar
    28     3     4    1
@<TRIPOS>MOLECULE
*****
 26 28 0 0 0
SMALL
GASTEIGER

@<TRIPOS>ATOM
      1 C         140.9569  143.2307  165.1509 C.3     1  UNL1        0.1126
      2 C         139.6028  143.7816  165.4866 C.3     1  UNL1        0.0906
      3 N         138.8725  144.6347  164.4922 N.3     1  UNL1       -0.2960
      4 H         138.2355  145.2276  165.0243 H       1  UNL1        0.1233
      5 C         138.0610  143.9928  163.4061 C.3     1  UNL1        0.0689
      6 C         137.4078  142.6636  163.6440 C.3     1  UNL1        0.0218
      7 C         137.9136  141.4419  162.9359 C.3     1  UNL1        0.0278
      8 C         138.8135  137.7002  165.2682 C.ar    1  UNL1       -0.0000
      9 C         138.8510  137.6766  163.7689 C.ar    1  UNL1       -0.0003
     10 C         138.5510  138.9238  162.9915 C.ar    1  UNL1       -0.0043
     11 C         138.2136  140.1946  163.7133 C.ar    1  UNL1       -0.0221
     12 C         138.1761  140.2182  165.2126 C.ar    1  UNL1       -0.0043
     13 C         138.4761  138.9710  165.9901 C.ar    1  UNL1       -0.0003
     14 N         141.4811  142.0310  165.8829 N.pl3   1  UNL1       -0.2854
     15 C         141.6818  142.0874  167.3684 C.ar    1  UNL1        0.0516
     16 C         140.5129  141.9054  168.2906 C.ar    1  UNL1        0.0148
     17 C         140.7137  141.9618  169.7760 C.ar    1  UNL1        0.0013
     18 C         142.0833  142.2003  170.3392 C.ar    1  UNL1        0.0001
     19 C         143.2522  142.3824  169.4170 C.ar    1  UNL1        0.0013
     20 C         143.0514  142.3260  167.9316 C.ar    1  UNL1        0.0148
     21 C         141.8045  140.7749  165.1296 C.ar    1  UNL1        0.0516
     22 C         141.8242  140.7838  163.6298 C.ar    1  UNL1        0.0148
     23 C         142.1476  139.5276  162.8764 C.ar    1  UNL1        0.0013
     24 C         142.4515  138.2626  163.6230 C.ar    1  UNL1        0.0001
     25 C         142.4319  138.2537  165.1228 C.ar    1  UNL1        0.0013
     26 C         142.1084  139.5098  165.8761 C.ar    1  UNL1        0.0148
@<TRIPOS>BOND
     1     8     9   ar
     2     9    10   ar
     3    10    11   ar
     4    11     7    1
     5     7     6    1
     6     6     5    1
     7     5     3    1
     8     3     2    1
     9     2     1    1
    10     1    14    1
    11    14    15    1
    12    15    16   ar
    13    16    17   ar
    14    17    18   ar
    15    18    19   ar
    16    19    20   ar
    17    14    21    1
    18    21    22   ar
    19    22    23   ar
    20    23    24   ar
    21    24    25   ar
    22    25    26   ar
    23    11    12   ar
    24    12    13   ar
    25    13     8   ar
    26    20    15   ar
    27    26    21   ar
    28     3     4    1
@<TRIPOS>MOLECULE
*****
 26 28 0 0 0
SMALL
GASTEIGER

@<TRIPOS>ATOM
      1 C         138.8813  142.2153  164.6134 C.3     1  UNL1        0.1126
      2 C         137.7008  141.3259  164.3581 C.3     1  UNL1        0.0906
      3 N         137.0288  141.3379  163.0171 N.3     1  UNL1       -0.2960
      4 H         136.2906  140.6348  163.0514 H       1  UNL1        0.1233
      5 C         137.8268  141.0677  161.7760 C.3     1  UNL1        0.0689
      6 C         137.6700  139.7630  161.0527 C.3     1  UNL1        0.0218
      7 C         137.7177  138.4722  161.8154 C.3     1  UNL1        0.0278
      8 C         141.3832  137.3990  164.1950 C.ar    1  UNL1       -0.0000
      9 C         140.0806  137.6488  164.8957 C.ar    1  UNL1       -0.0003
     10 C         138.8588  138.0065  164.1025 C.ar    1  UNL1       -0.0043
     11 C         138.9395  138.1145  162.6086 C.ar    1  UNL1       -0.0221
     12 C         140.2421  137.8648  161.9079 C.ar    1  UNL1       -0.0043
     13 C         141.4639  137.5070  162.7011 C.ar    1  UNL1       -0.0003
     14 N         140.0704  141.6875  165.3600 N.pl3   1  UNL1       -0.2854
     15 C         141.2937  141.2508  164.6098 C.ar    1  UNL1        0.0516
     16 C         142.4816  140.7200  165.3561 C.ar    1  UNL1        0.0148
     17 C         143.7049  140.2833  164.6059 C.ar    1  UNL1        0.0013
     18 C         143.7402  140.3774  163.1092 C.ar    1  UNL1        0.0001
     19 C         142.5523  140.9082  162.3629 C.ar    1  UNL1        0.0013
     20 C         141.3291  141.3449  163.1131 C.ar    1  UNL1        0.0148
     21 C         140.0363  141.5965  166.8569 C.ar    1  UNL1        0.0516
     22 C         140.4569  142.7711  167.6895 C.ar    1  UNL1        0.0148
     23 C         140.4227  142.6800  169.1864 C.ar    1  UNL1        0.0013
     24 C         139.9679  141.4143  169.8506 C.ar    1  UNL1        0.0001
     25 C         139.5473  140.2396  169.0179 C.ar    1  UNL1        0.0013
     26 C         139.5815  140.3307  167.5211 C.ar    1  UNL1        0.0148
@<TRIPOS>BOND
     1     8     9   ar
     2     9    10   ar
     3    10    11   ar
     4    11     7    1
     5     7     6    1
     6     6     5    1
     7     5     3    1
     8     3     2    1
     9     2     1    1
    10     1    14    1
    11    14    15    1
    12    15    16   ar
    13    16    17   ar
    14    17    18   ar
    15    18    19   ar
    16    19    20   ar
    17    14    21    1
    18    21    22   ar
    19    22    23   ar
    20    23    24   ar
    21    24    25   ar
    22    25    26   ar
    23    11    12   ar
    24    12    13   ar
    25    13     8   ar
    26    20    15   ar
    27    26    21   ar
    28     3     4    1
@<TRIPOS>MOLECULE
*****
 26 28 0 0 0
SMALL
GASTEIGER

@<TRIPOS>ATOM
      1 C         138.4429  139.0185  165.5736 C.3     1  UNL1        0.1126
      2 C         139.0512  138.0095  164.6452 C.3     1  UNL1        0.0906
      3 N         139.2322  138.3396  163.1932 N.3     1  UNL1       -0.2960
      4 H         138.8354  137.5637  162.6631 H       1  UNL1        0.1233
      5 C         140.6074  138.5805  162.6445 C.3     1  UNL1        0.0689
      6 C         141.4195  139.7406  163.1391 C.3     1  UNL1        0.0218
      7 C         141.2153  141.1047  162.5494 C.3     1  UNL1        0.0278
      8 C         143.5498  144.6119  164.1305 C.ar    1  UNL1       -0.0000
      9 C         143.7033  143.2614  164.7650 C.ar    1  UNL1       -0.0003
     10 C         142.9251  142.0923  164.2379 C.ar    1  UNL1       -0.0043
     11 C         141.9935  142.2737  163.0764 C.ar    1  UNL1       -0.0221
     12 C         141.8401  143.6242  162.4419 C.ar    1  UNL1       -0.0043
     13 C         142.6182  144.7933  162.9689 C.ar    1  UNL1       -0.0003
     14 N         139.2653  140.1688  166.0740 N.pl3   1  UNL1       -0.2854
     15 C         140.2863  139.9486  167.1506 C.ar    1  UNL1        0.0516
     16 C         139.8897  140.0543  168.5933 C.ar    1  UNL1        0.0148
     17 C         140.9106  139.8341  169.6699 C.ar    1  UNL1        0.0013
     18 C         142.3282  139.5081  169.3038 C.ar    1  UNL1        0.0001
     19 C         142.7249  139.4023  167.8611 C.ar    1  UNL1        0.0013
     20 C         141.7039  139.6226  166.7845 C.ar    1  UNL1        0.0148
     21 C         139.0667  141.5394  165.4977 C.ar    1  UNL1        0.0516
     22 C         139.8783  142.6927  166.0088 C.ar    1  UNL1        0.0148
     23 C         139.6797  144.0633  165.4326 C.ar    1  UNL1        0.0013
     24 C         138.6695  144.2806  164.3453 C.ar    1  UNL1        0.0001
     25 C         137.8579  143.1273  163.8342 C.ar    1  UNL1        0.0013
     26 C         138.0565  141.7567  164.4104 C.ar    1  UNL1        0.0148
@<TRIPOS>BOND
     1     8     9   ar
     2     9    10   ar
     3    10    11   ar
     4    11     7    1
     5     7     6    1
     6     6     5    1
     7     5     3    1
     8     3     2    1
     9     2     1    1
    10     1    14    1
    11    14    15    1
    12    15    16   ar
    13    16    17   ar
    14    17    18   ar
    15    18    19   ar
    16    19    20   ar
    17    14    21    1
    18    21    22   ar
    19    22    23   ar
    20    23    24   ar
    21    24    25   ar
    22    25    26   ar
    23    11    12   ar
    24    12    13   ar
    25    13     8   ar
    26    20    15   ar
    27    26    21   ar
    28     3     4    1
@<TRIPOS>MOLECULE
*****
 26 28 0 0 0
SMALL
GASTEIGER

@<TRIPOS>ATOM
      1 C         138.2936  139.1957  165.6550 C.3     1  UNL1        0.1126
      2 C         138.8142  138.0608  164.8238 C.3     1  UNL1        0.0906
      3 N         139.0848  138.2640  163.3625 N.3     1  UNL1       -0.2960
      4 H         138.8658  137.3831  162.8972 H       1  UNL1        0.1233
      5 C         140.4542  138.6679  162.9024 C.3     1  UNL1        0.0689
      6 C         140.8123  140.1209  162.7987 C.3     1  UNL1        0.0218
      7 C         142.2123  140.5712  163.0939 C.3     1  UNL1        0.0278
      8 C         143.0899  144.9437  163.6949 C.ar    1  UNL1       -0.0000
      9 C         142.1929  144.5057  162.5753 C.ar    1  UNL1       -0.0003
     10 C         141.9004  143.0482  162.3750 C.ar    1  UNL1       -0.0043
     11 C         142.5048  142.0287  163.2942 C.ar    1  UNL1       -0.0221
     12 C         143.4018  142.4666  164.4139 C.ar    1  UNL1       -0.0043
     13 C         143.6943  143.9241  164.6142 C.ar    1  UNL1       -0.0003
     14 N         139.2189  140.2938  166.0887 N.pl3   1  UNL1       -0.2854
     15 C         139.0826  141.6662  165.4987 C.ar    1  UNL1        0.0516
     16 C         138.0396  141.9334  164.4544 C.ar    1  UNL1        0.0148
     17 C         137.9034  143.3057  163.8644 C.ar    1  UNL1        0.0013
     18 C         138.8102  144.4108  164.3187 C.ar    1  UNL1        0.0001
     19 C         139.8532  144.1436  165.3630 C.ar    1  UNL1        0.0013
     20 C         139.9895  142.7713  165.9530 C.ar    1  UNL1        0.0148
     21 C         140.2804  140.0195  167.1124 C.ar    1  UNL1        0.0516
     22 C         141.6676  139.6531  166.6748 C.ar    1  UNL1        0.0148
     23 C         142.7291  139.3788  167.6985 C.ar    1  UNL1        0.0013
     24 C         142.4035  139.4710  169.1598 C.ar    1  UNL1        0.0001
     25 C         141.0163  139.8374  169.5974 C.ar    1  UNL1        0.0013
     26 C         139.9548  140.1117  168.5738 C.ar    1  UNL1        0.0148
@<TRIPOS>BOND
     1     8     9   ar
     2     9    10   ar
     3    10    11   ar
     4    11     7    1
     5     7     6    1
     6     6     5    1
     7     5     3    1
     8     3     2    1
     9     2     1    1
    10     1    14    1
    11    14    15    1
    12    15    16   ar
    13    16    17   ar
    14    17    18   ar
    15    18    19   ar
    16    19    20   ar
    17    14    21    1
    18    21    22   ar
    19    22    23   ar
    20    23    24   ar
    21    24    25   ar
    22    25    26   ar
    23    11    12   ar
    24    12    13   ar
    25    13     8   ar
    26    20    15   ar
    27    26    21   ar
    28     3     4    1
@<TRIPOS>MOLECULE
*****
 26 28 0 0 0
SMALL
GASTEIGER

@<TRIPOS>ATOM
      1 C         143.3307  139.1568  164.7592 C.3     1  UNL1        0.1126
      2 C         144.6076  139.8771  164.4421 C.3     1  UNL1        0.0906
      3 N         144.6673  140.8203  163.2773 N.3     1  UNL1       -0.2960
      4 H         145.6283  140.8055  162.9354 H       1  UNL1        0.1233
      5 C         144.2947  142.2618  163.4596 C.3     1  UNL1        0.0689
      6 C         142.9081  142.7261  163.1250 C.3     1  UNL1        0.0218
      7 C         142.0948  143.4590  164.1503 C.3     1  UNL1        0.0278
      8 C         137.6947  144.1208  163.4784 C.ar    1  UNL1       -0.0000
      9 C         138.2820  144.3134  164.8451 C.ar    1  UNL1       -0.0003
     10 C         139.7487  144.0928  165.0690 C.ar    1  UNL1       -0.0043
     11 C         140.6281  143.6796  163.9263 C.ar    1  UNL1       -0.0221
     12 C         140.0408  143.4870  162.5596 C.ar    1  UNL1       -0.0043
     13 C         138.5741  143.7076  162.3356 C.ar    1  UNL1       -0.0003
     14 N         142.2537  139.8485  165.5412 N.pl3   1  UNL1       -0.2854
     15 C         140.8861  140.0162  164.9481 C.ar    1  UNL1        0.0516
     16 C         140.6691  139.7755  163.4835 C.ar    1  UNL1        0.0148
     17 C         139.3016  139.9432  162.8905 C.ar    1  UNL1        0.0013
     18 C         138.1511  140.3517  163.7619 C.ar    1  UNL1        0.0001
     19 C         138.3681  140.5924  165.2264 C.ar    1  UNL1        0.0013
     20 C         139.7356  140.4247  165.8195 C.ar    1  UNL1        0.0148
     21 C         142.5441  140.3725  166.9163 C.ar    1  UNL1        0.0516
     22 C         142.4866  139.4504  168.0980 C.ar    1  UNL1        0.0148
     23 C         142.7771  139.9745  169.4732 C.ar    1  UNL1        0.0013
     24 C         143.1252  141.4206  169.6666 C.ar    1  UNL1        0.0001
     25 C         143.1827  142.3428  168.4849 C.ar    1  UNL1        0.0013
     26 C         142.8922  141.8188  167.1098 C.ar    1  UNL1        0.0148
@<TRIPOS>BOND
     1     8     9   ar
     2     9    10   ar
     3    10    11   ar
     4    11     7    1
     5     7     6    1
     6     6     5    1
     7     5     3    1
     8     3     2    1
     9     2     1    1
    10     1    14    1
    11    14    15    1
    12    15    16   ar
    13    16    17   ar
    14    17    18   ar
    15    18    19   ar
    16    19    20   ar
    17    14    21    1
    18    21    22   ar
    19    22    23   ar
    20    23    24   ar
    21    24    25   ar
    22    25    26   ar
    23    11    12   ar
    24    12    13   ar
    25    13     8   ar
    26    20    15   ar
    27    26    21   ar
    28     3     4    1
@<TRIPOS>MOLECULE
*****
 26 28 0 0 0
SMALL
GASTEIGER

@<TRIPOS>ATOM
      1 C         138.0491  139.4467  165.9882 C.3     1  UNL1        0.1126
      2 C         138.5006  139.2200  167.4005 C.3     1  UNL1        0.0906
      3 N         139.4086  140.2114  168.0659 N.3     1  UNL1       -0.2960
      4 H         139.5258  140.9871  167.4140 H       1  UNL1        0.1233
      5 C         140.7842  139.7968  168.4973 C.3     1  UNL1        0.0689
      6 C         141.8948  139.7218  167.4919 C.3     1  UNL1        0.0218
      7 C         142.3961  140.9728  166.8335 C.3     1  UNL1        0.0278
      8 C         145.0884  140.6994  163.2380 C.ar    1  UNL1       -0.0000
      9 C         144.8944  139.5035  164.1224 C.ar    1  UNL1       -0.0003
     10 C         143.9969  139.5946  165.3209 C.ar    1  UNL1       -0.0043
     11 C         143.2935  140.8817  165.6350 C.ar    1  UNL1       -0.0221
     12 C         143.4875  142.0776  164.7506 C.ar    1  UNL1       -0.0043
     13 C         144.3849  141.9864  163.5521 C.ar    1  UNL1       -0.0003
     14 N         138.9418  140.1675  165.0219 N.pl3   1  UNL1       -0.2854
     15 C         139.9679  139.4052  164.2370 C.ar    1  UNL1        0.0516
     16 C         140.6750  140.0630  163.0893 C.ar    1  UNL1        0.0148
     17 C         141.7011  139.3007  162.3044 C.ar    1  UNL1        0.0013
     18 C         142.0200  137.8807  162.6672 C.ar    1  UNL1        0.0001
     19 C         141.3129  137.2228  163.8149 C.ar    1  UNL1        0.0013
     20 C         140.2869  137.9851  164.5998 C.ar    1  UNL1        0.0148
     21 C         138.8084  141.6505  164.8407 C.ar    1  UNL1        0.0516
     22 C         139.7384  142.5808  165.5614 C.ar    1  UNL1        0.0148
     23 C         139.6050  144.0639  165.3801 C.ar    1  UNL1        0.0013
     24 C         138.5415  144.6165  164.4780 C.ar    1  UNL1        0.0001
     25 C         137.6115  143.6861  163.7573 C.ar    1  UNL1        0.0013
     26 C         137.7449  142.2031  163.9386 C.ar    1  UNL1        0.0148
@<TRIPOS>BOND
     1     8     9   ar
     2     9    10   ar
     3    10    11   ar
     4    11     7    1
     5     7     6    1
     6     6     5    1
     7     5     3    1
     8     3     2    1
     9     2     1    1
    10     1    14    1
    11    14    15    1
    12    15    16   ar
    13    16    17   ar
    14    17    18   ar
    15    18    19   ar
    16    19    20   ar
    17    14    21    1
    18    21    22   ar
    19    22    23   ar
    20    23    24   ar
    21    24    25   ar
    22    25    26   ar
    23    11    12   ar
    24    12    13   ar
    25    13     8   ar
    26    20    15   ar
    27    26    21   ar
    28     3     4    1
