@<TRIPOS>MOLECULE
*****
 31 35 0 0 0
SMALL
GASTEIGER

@<TRIPOS>ATOM
      1 C         142.7370  143.5087  161.8120 C.ar    1  UNL1        0.1543
      2 N         143.6266  144.6839  162.0903 N.ar    1  UNL1       -0.2073
      3 C         143.9257  145.0795  163.5059 C.ar    1  UNL1        0.2015
      4 N         143.3352  144.2998  164.6433 N.ar    1  UNL1       -0.2045
      5 C         142.4457  143.1245  164.3649 C.ar    1  UNL1        0.1711
      6 C         142.1466  142.7290  162.9493 C.ar    1  UNL1        0.1487
      7 N         141.2415  141.5333  162.9835 N.ar    1  UNL1       -0.2220
      8 C         140.9813  141.1898  164.4202 C.ar    1  UNL1        0.1497
      9 N         141.7255  142.1733  165.2740 N.ar    1  UNL1       -0.2753
     10 C         140.1268  140.0611  164.9162 C.ar    1  UNL1        0.0451
     11 C         138.8211  140.3512  165.5952 C.ar    1  UNL1        0.0047
     12 C         137.9667  139.2225  166.0911 C.ar    1  UNL1        0.0115
     13 C         138.4180  137.8037  165.9081 C.ar    1  UNL1        0.0585
     14 CL        137.5635  136.6750  166.4040 Cl      1  UNL1       -0.0822
     15 C         139.7237  137.5137  165.2291 C.ar    1  UNL1        0.0229
     16 C         140.5781  138.6424  164.7332 C.ar    1  UNL1        0.0614
     17 CL        141.8838  138.3523  164.0542 Cl      1  UNL1       -0.0821
     18 C         141.5406  141.9263  156.1494 C.3     1  UNL1        0.0897
     19 N         141.8397  142.3219  157.5650 N.3     1  UNL1       -0.2686
     20 C         140.7778  142.9703  158.4029 C.3     1  UNL1        0.0939
     21 C         141.0770  143.3659  159.8186 C.3     1  UNL1        0.1095
     22 N         142.4379  143.1131  160.3963 N.pl3   1  UNL1       -0.2891
     23 C         143.4998  142.4646  159.5585 C.3     1  UNL1        0.1095
     24 C         143.2007  142.0690  158.1429 C.3     1  UNL1        0.0939
     25 C         141.7460  142.2007  166.7736 C.ar    1  UNL1        0.0668
     26 C         142.9209  141.6394  167.5181 C.ar    1  UNL1        0.0185
     27 C         142.9413  141.6668  169.0177 C.ar    1  UNL1        0.0129
     28 C         141.7868  142.2556  169.7729 C.ar    1  UNL1        0.0578
     29 CL        141.8072  142.2831  171.2725 Cl      1  UNL1       -0.0822
     30 C         140.6118  142.8170  169.0284 C.ar    1  UNL1        0.0129
     31 C         140.5914  142.7896  167.5288 C.ar    1  UNL1        0.0185
@<TRIPOS>BOND
     1    18    19    1
     2    19    20    1
     3    20    21    1
     4    21    22    1
     5    22     1    1
     6     1     2   ar
     7     2     3   ar
     8     3     4   ar
     9     4     5   ar
    10     5     6   ar
    11     6     7   ar
    12     7     8   ar
    13     8    10    1
    14    10    11   ar
    15    11    12   ar
    16    12    13   ar
    17    13    14    1
    18    13    15   ar
    19    15    16   ar
    20    16    17    1
    21     8     9   ar
    22     9    25    1
    23    25    26   ar
    24    26    27   ar
    25    27    28   ar
    26    28    29    1
    27    28    30   ar
    28    30    31   ar
    29    22    23    1
    30    23    24    1
    31    24    19    1
    32     6     1   ar
    33    16    10   ar
    34    31    25   ar
    35     9     5   ar
@<TRIPOS>MOLECULE
*****
 31 35 0 0 0
SMALL
GASTEIGER

@<TRIPOS>ATOM
      1 C         143.1354  137.6962  156.9381 C.ar    1  UNL1        0.1543
      2 N         144.0462  138.5584  156.1153 N.ar    1  UNL1       -0.2073
      3 C         144.5365  139.8665  156.6615 C.ar    1  UNL1        0.2015
      4 N         144.1159  140.3124  158.0306 N.ar    1  UNL1       -0.2045
      5 C         143.2051  139.4503  158.8533 C.ar    1  UNL1        0.1711
      6 C         142.7148  138.1422  158.3071 C.ar    1  UNL1        0.1487
      7 N         141.8322  137.5093  159.3418 N.ar    1  UNL1       -0.2220
      8 C         141.7770  138.4264  160.5275 C.ar    1  UNL1        0.1497
      9 N         142.6255  139.6260  160.2256 N.ar    1  UNL1       -0.2753
     10 C         141.0082  138.1861  161.7930 C.ar    1  UNL1        0.0451
     11 C         141.7240  137.7325  163.0307 C.ar    1  UNL1        0.0047
     12 C         140.9553  137.4922  164.2961 C.ar    1  UNL1        0.0115
     13 C         139.4708  137.7056  164.3238 C.ar    1  UNL1        0.0585
     14 CL        138.7021  137.4653  165.5893 Cl      1  UNL1       -0.0822
     15 C         138.7550  138.1592  163.0861 C.ar    1  UNL1        0.0229
     16 C         139.5238  138.3995  161.8207 C.ar    1  UNL1        0.0614
     17 CL        138.8080  138.8531  160.5830 Cl      1  UNL1       -0.0821
     18 C         141.1741  132.4637  154.7531 C.3     1  UNL1        0.0897
     19 N         141.6644  133.7718  155.2993 N.3     1  UNL1       -0.2686
     20 C         142.7195  133.7911  156.3654 C.3     1  UNL1        0.0939
     21 C         143.2098  135.0993  156.9116 C.3     1  UNL1        0.1095
     22 N         142.6451  136.3880  156.3918 N.pl3   1  UNL1       -0.2891
     23 C         141.5900  136.3687  155.3258 C.3     1  UNL1        0.1095
     24 C         141.0997  135.0606  154.7795 C.3     1  UNL1        0.0939
     25 C         142.8542  140.7958  161.1362 C.ar    1  UNL1        0.0668
     26 C         144.2056  141.0167  161.7484 C.ar    1  UNL1        0.0185
     27 C         144.4344  142.1866  162.6590 C.ar    1  UNL1        0.0129
     28 C         143.3117  143.1356  162.9573 C.ar    1  UNL1        0.0578
     29 CL        143.5404  144.3055  163.8678 Cl      1  UNL1       -0.0822
     30 C         141.9603  142.9147  162.3450 C.ar    1  UNL1        0.0129
     31 C         141.7316  141.7449  161.4344 C.ar    1  UNL1        0.0185
@<TRIPOS>BOND
     1    18    19    1
     2    19    20    1
     3    20    21    1
     4    21    22    1
     5    22     1    1
     6     1     2   ar
     7     2     3   ar
     8     3     4   ar
     9     4     5   ar
    10     5     6   ar
    11     6     7   ar
    12     7     8   ar
    13     8    10    1
    14    10    11   ar
    15    11    12   ar
    16    12    13   ar
    17    13    14    1
    18    13    15   ar
    19    15    16   ar
    20    16    17    1
    21     8     9   ar
    22     9    25    1
    23    25    26   ar
    24    26    27   ar
    25    27    28   ar
    26    28    29    1
    27    28    30   ar
    28    30    31   ar
    29    22    23    1
    30    23    24    1
    31    24    19    1
    32     6     1   ar
    33    16    10   ar
    34    31    25   ar
    35     9     5   ar
@<TRIPOS>MOLECULE
*****
 31 35 0 0 0
SMALL
GASTEIGER

@<TRIPOS>ATOM
      1 C         139.8547  138.6936  157.4244 C.ar    1  UNL1        0.1543
      2 N         138.8565  139.4727  156.6204 N.ar    1  UNL1       -0.2073
      3 C         138.0941  140.5967  157.2571 C.ar    1  UNL1        0.2015
      4 N         138.3299  140.9415  158.6978 N.ar    1  UNL1       -0.2045
      5 C         139.3282  140.1623  159.5017 C.ar    1  UNL1        0.1711
      6 C         140.0906  139.0384  158.8650 C.ar    1  UNL1        0.1487
      7 N         141.0039  138.4525  159.9008 N.ar    1  UNL1       -0.2220
      8 C         140.8059  139.2144  161.1776 C.ar    1  UNL1        0.1497
      9 N         139.7703  140.2711  160.9309 N.ar    1  UNL1       -0.2753
     10 C         141.5185  138.9636  162.4735 C.ar    1  UNL1        0.0451
     11 C         142.8819  139.5446  162.7044 C.ar    1  UNL1        0.0047
     12 C         143.5944  139.2939  164.0003 C.ar    1  UNL1        0.0115
     13 C         142.9434  138.4621  165.0654 C.ar    1  UNL1        0.0585
     14 CL        143.6559  138.2113  166.3614 Cl      1  UNL1       -0.0822
     15 C         141.5799  137.8810  164.8345 C.ar    1  UNL1        0.0229
     16 C         140.8675  138.1318  163.5386 C.ar    1  UNL1        0.0614
     17 CL        139.5039  137.5508  163.3077 Cl      1  UNL1       -0.0821
     18 C         142.9044  134.1976  154.8776 C.3     1  UNL1        0.0897
     19 N         142.1420  135.3216  155.5143 N.3     1  UNL1       -0.2686
     20 C         142.7902  136.1614  156.5747 C.3     1  UNL1        0.0939
     21 C         142.0277  137.2854  157.2114 C.3     1  UNL1        0.1095
     22 N         140.6172  137.5696  156.7877 N.pl3   1  UNL1       -0.2891
     23 C         139.9690  136.7297  155.7272 C.3     1  UNL1        0.1095
     24 C         140.7314  135.6058  155.0905 C.3     1  UNL1        0.0939
     25 C         139.2654  141.2626  161.9369 C.ar    1  UNL1        0.0668
     26 C         140.1409  142.3991  162.3746 C.ar    1  UNL1        0.0185
     27 C         139.6360  143.3906  163.3806 C.ar    1  UNL1        0.0129
     28 C         138.2554  143.2456  163.9490 C.ar    1  UNL1        0.0578
     29 CL        137.7505  144.2370  164.9550 Cl      1  UNL1       -0.0822
     30 C         137.3799  142.1090  163.5113 C.ar    1  UNL1        0.0129
     31 C         137.8848  141.1175  162.5053 C.ar    1  UNL1        0.0185
@<TRIPOS>BOND
     1    18    19    1
     2    19    20    1
     3    20    21    1
     4    21    22    1
     5    22     1    1
     6     1     2   ar
     7     2     3   ar
     8     3     4   ar
     9     4     5   ar
    10     5     6   ar
    11     6     7   ar
    12     7     8   ar
    13     8    10    1
    14    10    11   ar
    15    11    12   ar
    16    12    13   ar
    17    13    14    1
    18    13    15   ar
    19    15    16   ar
    20    16    17    1
    21     8     9   ar
    22     9    25    1
    23    25    26   ar
    24    26    27   ar
    25    27    28   ar
    26    28    29    1
    27    28    30   ar
    28    30    31   ar
    29    22    23    1
    30    23    24    1
    31    24    19    1
    32     6     1   ar
    33    16    10   ar
    34    31    25   ar
    35     9     5   ar
@<TRIPOS>MOLECULE
*****
 31 35 0 0 0
SMALL
GASTEIGER

@<TRIPOS>ATOM
      1 C         139.8144  142.8145  156.9675 C.ar    1  UNL1        0.1543
      2 N         140.0775  141.6114  156.1113 N.ar    1  UNL1       -0.2073
      3 C         140.1943  140.2545  156.7399 C.ar    1  UNL1        0.2015
      4 N         140.0479  140.1007  158.2248 N.ar    1  UNL1       -0.2045
      5 C         139.7848  141.3038  159.0811 C.ar    1  UNL1        0.1711
      6 C         139.6681  142.6607  158.4524 C.ar    1  UNL1        0.1487
      7 N         139.4072  143.6563  159.5437 N.ar    1  UNL1       -0.2220
      8 C         139.3627  142.9147  160.8468 C.ar    1  UNL1        0.1497
      9 N         139.5961  141.4608  160.5608 N.ar    1  UNL1       -0.2753
     10 C         139.1263  143.5205  162.1985 C.ar    1  UNL1        0.0451
     11 C         137.7754  143.4148  162.8420 C.ar    1  UNL1        0.0047
     12 C         137.5391  144.0206  164.1936 C.ar    1  UNL1        0.0115
     13 C         138.6536  144.7322  164.9019 C.ar    1  UNL1        0.0585
     14 CL        138.4172  145.3380  166.2536 Cl      1  UNL1       -0.0822
     15 C         140.0044  144.8379  164.2584 C.ar    1  UNL1        0.0229
     16 C         140.2407  144.2321  162.9068 C.ar    1  UNL1        0.0614
     17 CL        141.5916  144.3378  162.2633 Cl      1  UNL1       -0.0821
     18 C         139.3476  148.2422  154.4532 C.3     1  UNL1        0.0897
     19 N         139.4642  146.8853  155.0817 N.3     1  UNL1       -0.2686
     20 C         138.2829  145.9611  155.0957 C.3     1  UNL1        0.0939
     21 C         138.3996  144.6041  155.7243 C.3     1  UNL1        0.1095
     22 N         139.6977  144.1714  156.3389 N.pl3   1  UNL1       -0.2891
     23 C         140.8791  145.0957  156.3250 C.3     1  UNL1        0.1095
     24 C         140.7624  146.4526  155.6964 C.3     1  UNL1        0.0939
     25 C         139.6340  140.3575  161.5764 C.ar    1  UNL1        0.0668
     26 C         140.8420  140.1816  162.4480 C.ar    1  UNL1        0.0185
     27 C         140.8800  139.0783  163.4635 C.ar    1  UNL1        0.0129
     28 C         139.7099  138.1508  163.6075 C.ar    1  UNL1        0.0578
     29 CL        139.7479  137.0476  164.6230 Cl      1  UNL1       -0.0822
     30 C         138.5020  138.3267  162.7358 C.ar    1  UNL1        0.0129
     31 C         138.4640  139.4300  161.7203 C.ar    1  UNL1        0.0185
@<TRIPOS>BOND
     1    18    19    1
     2    19    20    1
     3    20    21    1
     4    21    22    1
     5    22     1    1
     6     1     2   ar
     7     2     3   ar
     8     3     4   ar
     9     4     5   ar
    10     5     6   ar
    11     6     7   ar
    12     7     8   ar
    13     8    10    1
    14    10    11   ar
    15    11    12   ar
    16    12    13   ar
    17    13    14    1
    18    13    15   ar
    19    15    16   ar
    20    16    17    1
    21     8     9   ar
    22     9    25    1
    23    25    26   ar
    24    26    27   ar
    25    27    28   ar
    26    28    29    1
    27    28    30   ar
    28    30    31   ar
    29    22    23    1
    30    23    24    1
    31    24    19    1
    32     6     1   ar
    33    16    10   ar
    34    31    25   ar
    35     9     5   ar
@<TRIPOS>MOLECULE
*****
 31 35 0 0 0
SMALL
GASTEIGER

@<TRIPOS>ATOM
      1 C         139.6348  143.8187  157.5055 C.ar    1  UNL1        0.1543
      2 N         140.6161  144.7479  156.8547 N.ar    1  UNL1       -0.2073
      3 C         141.7958  145.2556  157.6296 C.ar    1  UNL1        0.2015
      4 N         141.9942  144.8340  159.0554 N.ar    1  UNL1       -0.2045
      5 C         141.0130  143.9048  159.7063 C.ar    1  UNL1        0.1711
      6 C         139.8333  143.3972  158.9313 C.ar    1  UNL1        0.1487
      7 N         139.0388  142.4986  159.8322 N.ar    1  UNL1       -0.2220
      8 C         139.7275  142.4509  161.1638 C.ar    1  UNL1        0.1497
      9 N         140.9476  143.3200  161.0860 N.ar    1  UNL1       -0.2753
     10 C         139.2756  141.6710  162.3629 C.ar    1  UNL1        0.0451
     11 C         139.7946  140.2828  162.5939 C.ar    1  UNL1        0.0047
     12 C         139.3426  139.5030  163.7928 C.ar    1  UNL1        0.0115
     13 C         138.3716  140.1115  164.7608 C.ar    1  UNL1        0.0585
     14 CL        137.9197  139.3316  165.9599 Cl      1  UNL1       -0.0822
     15 C         137.8526  141.4997  164.5298 C.ar    1  UNL1        0.0229
     16 C         138.3046  142.2795  163.3309 C.ar    1  UNL1        0.0614
     17 CL        137.7856  143.6678  163.0998 Cl      1  UNL1       -0.0821
     18 C         134.9159  141.7878  154.4060 C.3     1  UNL1        0.0897
     19 N         136.0956  142.2955  155.1808 N.3     1  UNL1       -0.2686
     20 C         136.6850  143.6363  154.8568 C.3     1  UNL1        0.0939
     21 C         137.8647  144.1440  155.6318 C.3     1  UNL1        0.1095
     22 N         138.4551  143.3110  156.7306 N.pl3   1  UNL1       -0.2891
     23 C         137.8657  141.9702  157.0546 C.3     1  UNL1        0.1095
     24 C         136.6860  141.4625  156.2797 C.3     1  UNL1        0.0939
     25 C         141.9299  143.5619  162.1935 C.ar    1  UNL1        0.0668
     26 C         142.8934  142.4829  162.5905 C.ar    1  UNL1        0.0185
     27 C         143.8757  142.7248  163.6980 C.ar    1  UNL1        0.0129
     28 C         143.8946  144.0457  164.4085 C.ar    1  UNL1        0.0578
     29 CL        144.8769  144.2875  165.5160 Cl      1  UNL1       -0.0822
     30 C         142.9312  145.1246  164.0116 C.ar    1  UNL1        0.0129
     31 C         141.9489  144.8828  162.9041 C.ar    1  UNL1        0.0185
@<TRIPOS>BOND
     1    18    19    1
     2    19    20    1
     3    20    21    1
     4    21    22    1
     5    22     1    1
     6     1     2   ar
     7     2     3   ar
     8     3     4   ar
     9     4     5   ar
    10     5     6   ar
    11     6     7   ar
    12     7     8   ar
    13     8    10    1
    14    10    11   ar
    15    11    12   ar
    16    12    13   ar
    17    13    14    1
    18    13    15   ar
    19    15    16   ar
    20    16    17    1
    21     8     9   ar
    22     9    25    1
    23    25    26   ar
    24    26    27   ar
    25    27    28   ar
    26    28    29    1
    27    28    30   ar
    28    30    31   ar
    29    22    23    1
    30    23    24    1
    31    24    19    1
    32     6     1   ar
    33    16    10   ar
    34    31    25   ar
    35     9     5   ar
@<TRIPOS>MOLECULE
*****
 31 35 0 0 0
SMALL
GASTEIGER

@<TRIPOS>ATOM
      1 C         138.7812  143.7959  156.4496 C.ar    1  UNL1        0.1543
      2 N         137.7586  142.8619  155.8737 N.ar    1  UNL1       -0.2073
      3 C         137.2501  141.7109  156.6901 C.ar    1  UNL1        0.2015
      4 N         137.7643  141.4939  158.0825 N.ar    1  UNL1       -0.2045
      5 C         138.7869  142.4279  158.6584 C.ar    1  UNL1        0.1711
      6 C         139.2954  143.5790  157.8419 C.ar    1  UNL1        0.1487
      7 N         140.2964  144.3285  158.6704 N.ar    1  UNL1       -0.2220
      8 C         140.4066  143.6406  159.9988 C.ar    1  UNL1        0.1497
      9 N         139.4737  142.4660  159.9913 N.ar    1  UNL1       -0.2753
     10 C         141.2939  144.0546  161.1352 C.ar    1  UNL1        0.0451
     11 C         142.7296  143.6211  161.1621 C.ar    1  UNL1        0.0047
     12 C         143.6169  144.0351  162.2984 C.ar    1  UNL1        0.0115
     13 C         143.0684  144.8827  163.4079 C.ar    1  UNL1        0.0585
     14 CL        143.9557  145.2967  164.5443 Cl      1  UNL1       -0.0822
     15 C         141.6327  145.3162  163.3810 C.ar    1  UNL1        0.0229
     16 C         140.7455  144.9022  162.2446 C.ar    1  UNL1        0.0614
     17 CL        139.3097  145.3357  162.2177 Cl      1  UNL1       -0.0821
     18 C         140.8153  148.4001  153.1840 C.3     1  UNL1        0.0897
     19 N         140.3068  147.2491  154.0004 N.3     1  UNL1       -0.2686
     20 C         139.2019  147.4632  154.9921 C.3     1  UNL1        0.0939
     21 C         138.6934  146.3121  155.8085 C.3     1  UNL1        0.1095
     22 N         139.2897  144.9470  155.6332 N.pl3   1  UNL1       -0.2891
     23 C         140.3946  144.7329  154.6415 C.3     1  UNL1        0.1095
     24 C         140.9031  145.8839  153.8251 C.3     1  UNL1        0.0939
     25 C         139.2643  141.4993  161.1189 C.ar    1  UNL1        0.0668
     26 C         140.2415  140.3832  161.3413 C.ar    1  UNL1        0.0185
     27 C         140.0321  139.4165  162.4689 C.ar    1  UNL1        0.0129
     28 C         138.8454  139.5657  163.3742 C.ar    1  UNL1        0.0578
     29 CL        138.6360  138.5990  164.5018 Cl      1  UNL1       -0.0822
     30 C         137.8682  140.6817  163.1518 C.ar    1  UNL1        0.0129
     31 C         138.0776  141.6485  162.0242 C.ar    1  UNL1        0.0185
@<TRIPOS>BOND
     1    18    19    1
     2    19    20    1
     3    20    21    1
     4    21    22    1
     5    22     1    1
     6     1     2   ar
     7     2     3   ar
     8     3     4   ar
     9     4     5   ar
    10     5     6   ar
    11     6     7   ar
    12     7     8   ar
    13     8    10    1
    14    10    11   ar
    15    11    12   ar
    16    12    13   ar
    17    13    14    1
    18    13    15   ar
    19    15    16   ar
    20    16    17    1
    21     8     9   ar
    22     9    25    1
    23    25    26   ar
    24    26    27   ar
    25    27    28   ar
    26    28    29    1
    27    28    30   ar
    28    30    31   ar
    29    22    23    1
    30    23    24    1
    31    24    19    1
    32     6     1   ar
    33    16    10   ar
    34    31    25   ar
    35     9     5   ar
@<TRIPOS>MOLECULE
*****
 31 35 0 0 0
SMALL
GASTEIGER

@<TRIPOS>ATOM
      1 C         139.8965  141.8440  157.6006 C.ar    1  UNL1        0.1543
      2 N         140.8859  142.6865  156.8516 N.ar    1  UNL1       -0.2073
      3 C         142.0199  143.3408  157.5836 C.ar    1  UNL1        0.2015
      4 N         142.1645  143.1525  159.0647 N.ar    1  UNL1       -0.2045
      5 C         141.1751  142.3099  159.8138 C.ar    1  UNL1        0.1711
      6 C         140.0411  141.6557  159.0817 C.ar    1  UNL1        0.1487
      7 N         139.2267  140.8874  160.0801 N.ar    1  UNL1       -0.2220
      8 C         139.8574  141.0669  161.4291 C.ar    1  UNL1        0.1497
      9 N         141.0616  141.9461  161.2645 N.ar    1  UNL1       -0.2753
     10 C         139.3696  140.4717  162.7167 C.ar    1  UNL1        0.0451
     11 C         138.6977  141.3411  163.7378 C.ar    1  UNL1        0.0047
     12 C         138.2100  140.7460  165.0253 C.ar    1  UNL1        0.0115
     13 C         138.3941  139.2814  165.2918 C.ar    1  UNL1        0.0585
     14 CL        137.9063  138.6862  166.5795 Cl      1  UNL1       -0.0822
     15 C         139.0660  138.4119  164.2708 C.ar    1  UNL1        0.0229
     16 C         139.5538  139.0071  162.9832 C.ar    1  UNL1        0.0614
     17 CL        140.2257  138.1377  161.9621 Cl      1  UNL1       -0.0821
     18 C         135.3603  139.2268  154.6725 C.3     1  UNL1        0.0897
     19 N         136.4943  139.8811  155.4045 N.3     1  UNL1       -0.2686
     20 C         137.9046  139.4348  155.1555 C.3     1  UNL1        0.0939
     21 C         139.0386  140.0891  155.8875 C.3     1  UNL1        0.1095
     22 N         138.7624  141.1897  156.8686 N.pl3   1  UNL1       -0.2891
     23 C         137.3522  141.6359  157.1177 C.3     1  UNL1        0.1095
     24 C         136.2181  140.9817  156.3857 C.3     1  UNL1        0.0939
     25 C         141.9893  142.3844  162.3586 C.ar    1  UNL1        0.0668
     26 C         143.2712  141.6428  162.5971 C.ar    1  UNL1        0.0185
     27 C         144.1990  142.0812  163.6912 C.ar    1  UNL1        0.0129
     28 C         143.8449  143.2612  164.5469 C.ar    1  UNL1        0.0578
     29 CL        144.7727  143.6995  165.6410 Cl      1  UNL1       -0.0822
     30 C         142.5631  144.0028  164.3084 C.ar    1  UNL1        0.0129
     31 C         141.6353  143.5644  163.2143 C.ar    1  UNL1        0.0185
@<TRIPOS>BOND
     1    18    19    1
     2    19    20    1
     3    20    21    1
     4    21    22    1
     5    22     1    1
     6     1     2   ar
     7     2     3   ar
     8     3     4   ar
     9     4     5   ar
    10     5     6   ar
    11     6     7   ar
    12     7     8   ar
    13     8    10    1
    14    10    11   ar
    15    11    12   ar
    16    12    13   ar
    17    13    14    1
    18    13    15   ar
    19    15    16   ar
    20    16    17    1
    21     8     9   ar
    22     9    25    1
    23    25    26   ar
    24    26    27   ar
    25    27    28   ar
    26    28    29    1
    27    28    30   ar
    28    30    31   ar
    29    22    23    1
    30    23    24    1
    31    24    19    1
    32     6     1   ar
    33    16    10   ar
    34    31    25   ar
    35     9     5   ar
@<TRIPOS>MOLECULE
*****
 31 35 0 0 0
SMALL
GASTEIGER

@<TRIPOS>ATOM
      1 C         143.2421  140.0986  156.9075 C.ar    1  UNL1        0.1543
      2 N         142.4236  139.0610  156.1980 N.ar    1  UNL1       -0.2073
      3 C         141.4758  138.1945  156.9731 C.ar    1  UNL1        0.2015
      4 N         141.3464  138.3657  158.4577 N.ar    1  UNL1       -0.2045
      5 C         142.1648  139.4034  159.1672 C.ar    1  UNL1        0.1711
      6 C         143.1127  140.2698  158.3921 C.ar    1  UNL1        0.1487
      7 N         143.7840  141.2014  159.3573 N.ar    1  UNL1       -0.2220
      8 C         143.2510  140.9107  160.7289 C.ar    1  UNL1        0.1497
      9 N         142.2503  139.7994  160.6114 N.ar    1  UNL1       -0.2753
     10 C         143.6488  141.6086  161.9957 C.ar    1  UNL1        0.0451
     11 C         144.8788  141.1748  162.7366 C.ar    1  UNL1        0.0047
     12 C         145.2765  141.8727  164.0033 C.ar    1  UNL1        0.0115
     13 C         144.4443  143.0045  164.5291 C.ar    1  UNL1        0.0585
     14 CL        144.8421  143.7024  165.7959 Cl      1  UNL1       -0.0822
     15 C         143.2144  143.4383  163.7883 C.ar    1  UNL1        0.0229
     16 C         142.8166  142.7404  162.5216 C.ar    1  UNL1        0.0614
     17 CL        141.5866  143.1742  161.7806 Cl      1  UNL1       -0.0821
     18 C         147.0335  143.5647  153.8072 C.3     1  UNL1        0.0897
     19 N         146.0857  142.6982  154.5823 N.3     1  UNL1       -0.2686
     20 C         146.5960  141.4846  155.3010 C.3     1  UNL1        0.0939
     21 C         145.6481  140.6180  156.0761 C.3     1  UNL1        0.1095
     22 N         144.1900  140.9652  156.1324 N.pl3   1  UNL1       -0.2891
     23 C         143.6796  142.1788  155.4136 C.3     1  UNL1        0.1095
     24 C         144.6274  143.0453  154.6386 C.3     1  UNL1        0.0939
     25 C         141.4718  139.1910  161.7400 C.ar    1  UNL1        0.0668
     26 C         141.9530  137.9262  162.3870 C.ar    1  UNL1        0.0185
     27 C         141.1744  137.3178  163.5156 C.ar    1  UNL1        0.0129
     28 C         139.9146  137.9742  163.9972 C.ar    1  UNL1        0.0578
     29 CL        139.1361  137.3658  165.1258 Cl      1  UNL1       -0.0822
     30 C         139.4334  139.2390  163.3502 C.ar    1  UNL1        0.0129
     31 C         140.2119  139.8474  162.2216 C.ar    1  UNL1        0.0185
@<TRIPOS>BOND
     1    18    19    1
     2    19    20    1
     3    20    21    1
     4    21    22    1
     5    22     1    1
     6     1     2   ar
     7     2     3   ar
     8     3     4   ar
     9     4     5   ar
    10     5     6   ar
    11     6     7   ar
    12     7     8   ar
    13     8    10    1
    14    10    11   ar
    15    11    12   ar
    16    12    13   ar
    17    13    14    1
    18    13    15   ar
    19    15    16   ar
    20    16    17    1
    21     8     9   ar
    22     9    25    1
    23    25    26   ar
    24    26    27   ar
    25    27    28   ar
    26    28    29    1
    27    28    30   ar
    28    30    31   ar
    29    22    23    1
    30    23    24    1
    31    24    19    1
    32     6     1   ar
    33    16    10   ar
    34    31    25   ar
    35     9     5   ar
@<TRIPOS>MOLECULE
*****
 31 35 0 0 0
SMALL
GASTEIGER

@<TRIPOS>ATOM
      1 C         143.7230  139.1621  156.3218 C.ar    1  UNL1        0.1543
      2 N         144.6584  140.1567  155.7009 N.ar    1  UNL1       -0.2073
      3 C         145.1433  141.3302  156.4994 C.ar    1  UNL1        0.2015
      4 N         144.6928  141.5091  157.9190 N.ar    1  UNL1       -0.2045
      5 C         143.7574  140.5144  158.5399 C.ar    1  UNL1        0.1711
      6 C         143.2725  139.3409  157.7414 C.ar    1  UNL1        0.1487
      7 N         142.3616  138.5303  158.6150 N.ar    1  UNL1       -0.2220
      8 C         142.2836  139.2028  159.9535 C.ar    1  UNL1        0.1497
      9 N         143.1462  140.4291  159.9071 N.ar    1  UNL1       -0.2753
     10 C         141.4834  138.7318  161.1316 C.ar    1  UNL1        0.0451
     11 C         139.9888  138.8586  161.1221 C.ar    1  UNL1        0.0047
     12 C         139.1887  138.3876  162.3002 C.ar    1  UNL1        0.0115
     13 C         139.8831  137.7898  163.4878 C.ar    1  UNL1        0.0585
     14 CL        139.0829  137.3188  164.6659 Cl      1  UNL1       -0.0822
     15 C         141.3777  137.6630  163.4973 C.ar    1  UNL1        0.0229
     16 C         142.1778  138.1340  162.3192 C.ar    1  UNL1        0.0614
     17 CL        143.6725  138.0071  162.3286 Cl      1  UNL1       -0.0821
     18 C         141.7833  134.4679  153.1277 C.3     1  UNL1        0.0897
     19 N         142.2682  135.6414  153.9262 N.3     1  UNL1       -0.2686
     20 C         141.6738  136.9999  153.6996 C.3     1  UNL1        0.0939
     21 C         142.1588  138.1734  154.4981 C.3     1  UNL1        0.1095
     22 N         143.2380  137.9885  155.5233 N.pl3   1  UNL1       -0.2891
     23 C         143.8324  136.6301  155.7499 C.3     1  UNL1        0.1095
     24 C         143.3475  135.4566  154.9514 C.3     1  UNL1        0.0939
     25 C         143.3602  141.3996  161.0306 C.ar    1  UNL1        0.0668
     26 C         142.2839  142.3809  161.3892 C.ar    1  UNL1        0.0185
     27 C         142.4978  143.3514  162.5127 C.ar    1  UNL1        0.0129
     28 C         143.7881  143.3407  163.2777 C.ar    1  UNL1        0.0578
     29 CL        144.0020  144.3112  164.4012 Cl      1  UNL1       -0.0822
     30 C         144.8643  142.3593  162.9191 C.ar    1  UNL1        0.0129
     31 C         144.6504  141.3888  161.7956 C.ar    1  UNL1        0.0185
@<TRIPOS>BOND
     1    18    19    1
     2    19    20    1
     3    20    21    1
     4    21    22    1
     5    22     1    1
     6     1     2   ar
     7     2     3   ar
     8     3     4   ar
     9     4     5   ar
    10     5     6   ar
    11     6     7   ar
    12     7     8   ar
    13     8    10    1
    14    10    11   ar
    15    11    12   ar
    16    12    13   ar
    17    13    14    1
    18    13    15   ar
    19    15    16   ar
    20    16    17    1
    21     8     9   ar
    22     9    25    1
    23    25    26   ar
    24    26    27   ar
    25    27    28   ar
    26    28    29    1
    27    28    30   ar
    28    30    31   ar
    29    22    23    1
    30    23    24    1
    31    24    19    1
    32     6     1   ar
    33    16    10   ar
    34    31    25   ar
    35     9     5   ar
