@<TRIPOS>MOLECULE
*****
 42 47 0 0 0
SMALL
GASTEIGER

@<TRIPOS>ATOM
      1 N         143.6365  138.9376  157.9135 N.am    1  UNL1       -0.2804
      2 C         142.2887  138.4520  157.4688 C.2     1  UNL1        0.2495
      3 O         141.0550  138.8864  158.2032 O.2     1  UNL1       -0.2698
      4 H         144.4461  138.6524  157.4314 H       1  UNL1        0.1552
      5 C         142.1746  137.5319  156.2897 C.ar    1  UNL1        0.0543
      6 C         142.0112  138.0974  154.9099 C.ar    1  UNL1        0.0042
      7 C         141.8970  137.1773  153.7309 C.ar    1  UNL1       -0.0035
      8 C         141.9463  135.6915  153.9314 C.ar    1  UNL1       -0.0142
      9 C         141.8322  134.7714  152.7522 C.3     1  UNL1        0.0317
     10 C         142.1097  135.1260  155.3110 C.ar    1  UNL1        0.0382
     11 C         142.2239  136.0461  156.4901 C.ar    1  UNL1        0.0124
     12 C         142.1590  133.6403  155.5115 C.1     1  UNL1       -0.0585
     13 C         142.2083  132.1545  155.7119 C.1     1  UNL1       -0.0388
     14 C         142.2575  130.6688  155.9124 C.ar    1  UNL1        0.1451
     15 C         141.4247  129.6533  155.1878 C.ar    1  UNL1        0.1281
     16 N         141.8008  128.2946  155.7003 N.ar    1  UNL1       -0.2228
     17 C         142.8660  128.4704  156.7416 C.ar    1  UNL1        0.1646
     18 C         143.6154  127.4840  157.5873 C.ar    1  UNL1        0.0405
     19 C         144.6471  127.9649  158.5642 C.ar    1  UNL1        0.0256
     20 C         144.9294  129.4323  158.6952 C.ar    1  UNL1        0.1207
     21 N         144.1800  130.4187  157.8495 N.ar    1  UNL1       -0.1616
     22 N         143.1483  129.9378  156.8727 N.ar    1  UNL1       -0.2030
     23 C         143.9789  141.6980  161.4509 C.ar    1  UNL1       -0.0100
     24 C         143.8334  142.2638  160.0693 C.ar    1  UNL1       -0.0020
     25 C         143.7192  141.3436  158.8902 C.ar    1  UNL1        0.0144
     26 C         143.7506  139.8577  159.0926 C.ar    1  UNL1        0.0502
     27 C         143.8962  139.2919  160.4741 C.ar    1  UNL1        0.0101
     28 C         144.0103  140.2120  161.6532 C.ar    1  UNL1       -0.0239
     29 C         144.1558  139.6462  163.0348 C.3     1  UNL1        0.0221
     30 C         143.6007  138.8468  164.1762 C.3     1  UNL1        0.0047
     31 C         144.9629  139.4654  164.2861 C.3     1  UNL1        0.0047
     32 C         144.0931  142.6181  162.6300 C.3     1  UNL1        0.0989
     33 N         140.3790  144.2294  164.5943 N.3     1  UNL1       -0.2682
     34 C         140.9644  142.9264  165.0519 C.3     1  UNL1        0.0897
     35 C         142.2024  142.3893  164.3972 C.3     1  UNL1        0.0899
     36 N         142.8550  143.1552  163.2848 N.3     1  UNL1       -0.2665
     37 C         142.2696  144.4583  162.8271 C.3     1  UNL1        0.0899
     38 C         141.0316  144.9954  163.4819 C.3     1  UNL1        0.0897
     39 C         139.1408  144.7666  165.2491 C.3     1  UNL1        0.1046
     40 C         137.7884  144.3576  164.7455 C.3     1  UNL1        0.1595
     41 C         137.7597  142.9661  162.5518 C.3     1  UNL1        0.1742
     42 O         137.5345  144.2634  163.2702 O.3     1  UNL1       -0.3496
@<TRIPOS>BOND
     1    41    42    1
     2    42    40    1
     3    40    39    1
     4    39    33    1
     5    33    34    1
     6    34    35    1
     7    35    36    1
     8    36    32    1
     9    32    23    1
    10    23    24   ar
    11    24    25   ar
    12    25    26   ar
    13    26     1    1
    14     1     2   am
    15     2     3    2
    16     2     5    1
    17     5     6   ar
    18     6     7   ar
    19     7     8   ar
    20     8     9    1
    21     8    10   ar
    22    10    12    1
    23    12    13    3
    24    13    14    1
    25    14    15   ar
    26    15    16   ar
    27    16    17   ar
    28    17    18   ar
    29    18    19   ar
    30    19    20   ar
    31    20    21   ar
    32    21    22   ar
    33    10    11   ar
    34    26    27   ar
    35    27    28   ar
    36    28    29    1
    37    29    30    1
    38    30    31    1
    39    36    37    1
    40    37    38    1
    41    38    33    1
    42    28    23   ar
    43    31    29    1
    44    11     5   ar
    45    22    14   ar
    46    22    17   ar
    47     1     4    1
@<TRIPOS>MOLECULE
*****
 42 47 0 0 0
SMALL
GASTEIGER

@<TRIPOS>ATOM
      1 N         140.3107  138.8409  160.1340 N.am    1  UNL1       -0.2804
      2 C         139.3919  139.1697  158.9948 C.2     1  UNL1        0.2495
      3 O         137.9867  139.6171  159.2695 O.2     1  UNL1       -0.2698
      4 H         141.2329  138.5473  159.9536 H       1  UNL1        0.1552
      5 C         139.8782  139.0510  157.5808 C.ar    1  UNL1        0.0543
      6 C         139.9176  140.2624  156.6969 C.ar    1  UNL1        0.0042
      7 C         140.4039  140.1436  155.2830 C.ar    1  UNL1       -0.0035
      8 C         140.8509  138.8136  154.7527 C.ar    1  UNL1       -0.0142
      9 C         141.3372  138.6949  153.3387 C.3     1  UNL1        0.0317
     10 C         140.8115  137.6023  155.6365 C.ar    1  UNL1        0.0382
     11 C         140.3252  137.7210  157.0505 C.ar    1  UNL1        0.0124
     12 C         141.2585  136.2722  155.1062 C.1     1  UNL1       -0.0585
     13 C         141.7056  134.9422  154.5760 C.1     1  UNL1       -0.0388
     14 C         142.1526  133.6121  154.0457 C.ar    1  UNL1        0.1451
     15 C         141.7044  132.9790  152.7619 C.ar    1  UNL1        0.1281
     16 N         142.4011  131.6573  152.6289 N.ar    1  UNL1       -0.2228
     17 C         143.2798  131.4735  153.8307 C.ar    1  UNL1        0.1646
     18 C         144.1999  130.3621  154.2407 C.ar    1  UNL1        0.0405
     19 C         144.9664  130.4589  155.5264 C.ar    1  UNL1        0.0256
     20 C         144.8128  131.6671  156.4020 C.ar    1  UNL1        0.1207
     21 N         143.8927  132.7785  155.9920 N.ar    1  UNL1       -0.1616
     22 N         143.1262  132.6817  154.7063 N.ar    1  UNL1       -0.2030
     23 C         138.8517  139.1969  164.3760 C.ar    1  UNL1       -0.0100
     24 C         139.1499  137.8459  163.7964 C.ar    1  UNL1       -0.0020
     25 C         139.6363  137.7273  162.3823 C.ar    1  UNL1        0.0144
     26 C         139.8243  138.9596  161.5479 C.ar    1  UNL1        0.0502
     27 C         139.5261  140.3105  162.1277 C.ar    1  UNL1        0.0101
     28 C         139.0397  140.4292  163.5417 C.ar    1  UNL1       -0.0239
     29 C         138.7415  141.7801  164.1213 C.3     1  UNL1        0.0221
     30 C         137.7481  142.8107  164.5698 C.3     1  UNL1        0.0047
     31 C         139.2182  143.0894  164.6767 C.3     1  UNL1        0.0047
     32 C         138.3654  139.3155  165.7900 C.3     1  UNL1        0.0989
     33 N         141.2516  140.3548  169.0823 N.3     1  UNL1       -0.2682
     34 C         141.7449  140.1970  167.6746 C.3     1  UNL1        0.0897
     35 C         140.7828  139.8506  166.5771 C.3     1  UNL1        0.0899
     36 N         139.3275  139.6620  166.8874 N.3     1  UNL1       -0.2665
     37 C         138.8341  139.8198  168.2952 C.3     1  UNL1        0.0899
     38 C         139.7962  140.1662  169.3926 C.3     1  UNL1        0.0897
     39 C         142.2137  140.7012  170.1798 C.3     1  UNL1        0.1046
     40 C         142.3979  142.1317  170.5918 C.3     1  UNL1        0.1595
     41 C         140.5403  143.7777  169.8242 C.3     1  UNL1        0.1742
     42 O         141.2027  142.9807  170.9087 O.3     1  UNL1       -0.3496
@<TRIPOS>BOND
     1    41    42    1
     2    42    40    1
     3    40    39    1
     4    39    33    1
     5    33    34    1
     6    34    35    1
     7    35    36    1
     8    36    32    1
     9    32    23    1
    10    23    24   ar
    11    24    25   ar
    12    25    26   ar
    13    26     1    1
    14     1     2   am
    15     2     3    2
    16     2     5    1
    17     5     6   ar
    18     6     7   ar
    19     7     8   ar
    20     8     9    1
    21     8    10   ar
    22    10    12    1
    23    12    13    3
    24    13    14    1
    25    14    15   ar
    26    15    16   ar
    27    16    17   ar
    28    17    18   ar
    29    18    19   ar
    30    19    20   ar
    31    20    21   ar
    32    21    22   ar
    33    10    11   ar
    34    26    27   ar
    35    27    28   ar
    36    28    29    1
    37    29    30    1
    38    30    31    1
    39    36    37    1
    40    37    38    1
    41    38    33    1
    42    28    23   ar
    43    31    29    1
    44    11     5   ar
    45    22    14   ar
    46    22    17   ar
    47     1     4    1
@<TRIPOS>MOLECULE
*****
 42 47 0 0 0
SMALL
GASTEIGER

@<TRIPOS>ATOM
      1 N         143.6692  140.3471  159.9999 N.am    1  UNL1       -0.2804
      2 C         142.6360  139.3124  159.6657 C.2     1  UNL1        0.2495
      3 O         141.6177  138.9106  160.6913 O.2     1  UNL1       -0.2698
      4 H         144.3376  140.6107  159.3268 H       1  UNL1        0.1552
      5 C         142.6210  138.6793  158.3059 C.ar    1  UNL1        0.0543
      6 C         142.5462  139.5391  157.0790 C.ar    1  UNL1        0.0042
      7 C         142.5312  138.9060  155.7193 C.ar    1  UNL1       -0.0035
      8 C         142.5910  137.4131  155.5864 C.ar    1  UNL1       -0.0142
      9 C         142.5761  136.7800  154.2266 C.3     1  UNL1        0.0317
     10 C         142.6659  136.5533  156.8132 C.ar    1  UNL1        0.0382
     11 C         142.6809  137.1864  158.1730 C.ar    1  UNL1        0.0124
     12 C         142.7258  135.0604  156.6802 C.1     1  UNL1       -0.0585
     13 C         142.7857  133.5675  156.5472 C.1     1  UNL1       -0.0388
     14 C         142.8456  132.0746  156.4142 C.ar    1  UNL1        0.1451
     15 C         143.8801  131.1759  157.0242 C.ar    1  UNL1        0.1281
     16 N         143.5552  129.7642  156.6349 N.ar    1  UNL1       -0.2228
     17 C         142.3200  129.7904  155.7843 C.ar    1  UNL1        0.1646
     18 C         141.5380  128.6986  155.1163 C.ar    1  UNL1        0.0405
     19 C         140.3173  129.0347  154.3119 C.ar    1  UNL1        0.0256
     20 C         139.8787  130.4626  154.1756 C.ar    1  UNL1        0.1207
     21 N         140.6607  131.5545  154.8435 N.ar    1  UNL1       -0.1616
     22 N         141.8814  131.2184  155.6479 N.ar    1  UNL1       -0.2030
     23 C         143.7143  142.2463  164.0793 C.ar    1  UNL1       -0.0100
     24 C         144.6048  141.0751  163.7875 C.ar    1  UNL1       -0.0020
     25 C         144.5898  140.4420  162.4276 C.ar    1  UNL1        0.0144
     26 C         143.6842  140.9802  161.3597 C.ar    1  UNL1        0.0502
     27 C         142.7938  142.1514  161.6516 C.ar    1  UNL1        0.0101
     28 C         142.8087  142.7844  163.0114 C.ar    1  UNL1       -0.0239
     29 C         141.9182  143.9556  163.3032 C.3     1  UNL1        0.0221
     30 C         140.5464  144.5218  163.5217 C.3     1  UNL1        0.0047
     31 C         141.7474  145.4180  163.5902 C.3     1  UNL1        0.0047
     32 C         143.7292  142.8793  165.4391 C.3     1  UNL1        0.0989
     33 N         141.4541  140.9851  168.8280 N.3     1  UNL1       -0.2682
     34 C         140.9588  140.8416  167.4195 C.3     1  UNL1        0.0897
     35 C         141.7172  141.4730  166.2898 C.3     1  UNL1        0.0899
     36 N         142.9708  142.2479  166.5687 N.3     1  UNL1       -0.2665
     37 C         143.4662  142.3914  167.9773 C.3     1  UNL1        0.0899
     38 C         142.7078  141.7600  169.1070 C.3     1  UNL1        0.0897
     39 C         140.6957  140.3536  169.9578 C.3     1  UNL1        0.1046
     40 C         140.8978  140.8412  171.3619 C.3     1  UNL1        0.1595
     41 C         139.6473  143.0442  170.7853 C.3     1  UNL1        0.1742
     42 O         140.4416  142.2160  171.7513 O.3     1  UNL1       -0.3496
@<TRIPOS>BOND
     1    41    42    1
     2    42    40    1
     3    40    39    1
     4    39    33    1
     5    33    34    1
     6    34    35    1
     7    35    36    1
     8    36    32    1
     9    32    23    1
    10    23    24   ar
    11    24    25   ar
    12    25    26   ar
    13    26     1    1
    14     1     2   am
    15     2     3    2
    16     2     5    1
    17     5     6   ar
    18     6     7   ar
    19     7     8   ar
    20     8     9    1
    21     8    10   ar
    22    10    12    1
    23    12    13    3
    24    13    14    1
    25    14    15   ar
    26    15    16   ar
    27    16    17   ar
    28    17    18   ar
    29    18    19   ar
    30    19    20   ar
    31    20    21   ar
    32    21    22   ar
    33    10    11   ar
    34    26    27   ar
    35    27    28   ar
    36    28    29    1
    37    29    30    1
    38    30    31    1
    39    36    37    1
    40    37    38    1
    41    38    33    1
    42    28    23   ar
    43    31    29    1
    44    11     5   ar
    45    22    14   ar
    46    22    17   ar
    47     1     4    1
@<TRIPOS>MOLECULE
*****
 42 47 0 0 0
SMALL
GASTEIGER

@<TRIPOS>ATOM
      1 N         139.7672  141.8061  160.2369 N.am    1  UNL1       -0.2804
      2 C         139.2493  140.9348  159.1311 C.2     1  UNL1        0.2495
      3 O         139.4408  139.4485  159.1950 O.2     1  UNL1       -0.2698
      4 H         139.6414  142.7816  160.1949 H       1  UNL1        0.1552
      5 C         138.5397  141.5500  157.9615 C.ar    1  UNL1        0.0543
      6 C         137.3292  140.8802  157.3816 C.ar    1  UNL1        0.0042
      7 C         136.6198  141.4954  156.2120 C.ar    1  UNL1       -0.0035
      8 C         137.1207  142.7803  155.6220 C.ar    1  UNL1       -0.0142
      9 C         136.4112  143.3955  154.4524 C.3     1  UNL1        0.0317
     10 C         138.3311  143.4500  156.2018 C.ar    1  UNL1        0.0382
     11 C         139.0407  142.8349  157.3715 C.ar    1  UNL1        0.0124
     12 C         138.8321  144.7350  155.6119 C.1     1  UNL1       -0.0585
     13 C         139.3330  146.0200  155.0220 C.1     1  UNL1       -0.0388
     14 C         139.8339  147.3049  154.4321 C.ar    1  UNL1        0.1451
     15 C         140.7738  147.4343  153.2702 C.ar    1  UNL1        0.1281
     16 N         141.0036  148.8954  153.0206 N.ar    1  UNL1       -0.2228
     17 C         140.2059  149.6690  154.0281 C.ar    1  UNL1        0.1646
     18 C         140.0443  151.1415  154.2639 C.ar    1  UNL1        0.0405
     19 C         139.1599  151.6310  155.3721 C.ar    1  UNL1        0.0256
     20 C         138.4369  150.6480  156.2445 C.ar    1  UNL1        0.1207
     21 N         138.5985  149.1755  156.0087 N.ar    1  UNL1       -0.1616
     22 N         139.4829  148.6860  154.9005 N.ar    1  UNL1       -0.2030
     23 C         141.8959  139.9607  163.7460 C.ar    1  UNL1       -0.0100
     24 C         142.6680  140.7508  162.7313 C.ar    1  UNL1       -0.0020
     25 C         141.9584  141.3659  161.5616 C.ar    1  UNL1        0.0144
     26 C         140.4767  141.1909  161.4066 C.ar    1  UNL1        0.0502
     27 C         139.7047  140.4008  162.4212 C.ar    1  UNL1        0.0101
     28 C         140.4142  139.7857  163.5909 C.ar    1  UNL1       -0.0239
     29 C         139.6420  138.9956  164.6056 C.3     1  UNL1        0.0221
     30 C         138.7193  138.9488  165.7873 C.3     1  UNL1        0.0047
     31 C         139.2273  137.6740  165.1813 C.3     1  UNL1        0.0047
     32 C         142.6054  139.3455  164.9157 C.3     1  UNL1        0.0989
     33 N         142.6459  141.4593  168.8880 N.3     1  UNL1       -0.2682
     34 C         142.7125  142.2516  167.6161 C.3     1  UNL1        0.0897
     35 C         142.6990  141.5471  166.2920 C.3     1  UNL1        0.0899
     36 N         142.6189  140.0502  166.2398 N.3     1  UNL1       -0.2665
     37 C         142.5523  139.2577  167.5117 C.3     1  UNL1        0.0899
     38 C         142.5658  139.9623  168.8358 C.3     1  UNL1        0.0897
     39 C         142.6594  142.1639  170.2123 C.3     1  UNL1        0.1046
     40 C         141.8781  141.6080  171.3657 C.3     1  UNL1        0.1595
     41 C         139.7543  142.9510  170.7060 C.3     1  UNL1        0.1742
     42 O         140.5556  142.2112  171.7358 O.3     1  UNL1       -0.3496
@<TRIPOS>BOND
     1    41    42    1
     2    42    40    1
     3    40    39    1
     4    39    33    1
     5    33    34    1
     6    34    35    1
     7    35    36    1
     8    36    32    1
     9    32    23    1
    10    23    24   ar
    11    24    25   ar
    12    25    26   ar
    13    26     1    1
    14     1     2   am
    15     2     3    2
    16     2     5    1
    17     5     6   ar
    18     6     7   ar
    19     7     8   ar
    20     8     9    1
    21     8    10   ar
    22    10    12    1
    23    12    13    3
    24    13    14    1
    25    14    15   ar
    26    15    16   ar
    27    16    17   ar
    28    17    18   ar
    29    18    19   ar
    30    19    20   ar
    31    20    21   ar
    32    21    22   ar
    33    10    11   ar
    34    26    27   ar
    35    27    28   ar
    36    28    29    1
    37    29    30    1
    38    30    31    1
    39    36    37    1
    40    37    38    1
    41    38    33    1
    42    28    23   ar
    43    31    29    1
    44    11     5   ar
    45    22    14   ar
    46    22    17   ar
    47     1     4    1
@<TRIPOS>MOLECULE
*****
 42 47 0 0 0
SMALL
GASTEIGER

@<TRIPOS>ATOM
      1 N         139.5360  141.5107  161.0433 N.am    1  UNL1       -0.2804
      2 C         140.0545  140.1987  160.5336 C.2     1  UNL1        0.2495
      3 O         140.8009  139.2787  161.4536 O.2     1  UNL1       -0.2698
      4 H         139.0461  142.1145  160.4394 H       1  UNL1        0.1552
      5 C         139.8268  139.8068  159.1037 C.ar    1  UNL1        0.0543
      6 C         138.9487  140.6486  158.2259 C.ar    1  UNL1        0.0042
      7 C         138.7210  140.2566  156.7962 C.ar    1  UNL1       -0.0035
      8 C         139.3712  139.0228  156.2440 C.ar    1  UNL1       -0.0142
      9 C         139.1434  138.6309  154.8141 C.3     1  UNL1        0.0317
     10 C         140.2492  138.1810  157.1217 C.ar    1  UNL1        0.0382
     11 C         140.4770  138.5730  158.5516 C.ar    1  UNL1        0.0124
     12 C         140.8995  136.9472  156.5695 C.1     1  UNL1       -0.0585
     13 C         141.5497  135.7134  156.0173 C.1     1  UNL1       -0.0388
     14 C         142.1999  134.4796  155.4651 C.ar    1  UNL1        0.1451
     15 C         141.9476  133.8795  154.1137 C.ar    1  UNL1        0.1281
     16 N         142.8084  132.6583  153.9808 N.ar    1  UNL1       -0.2228
     17 C         143.5927  132.5036  155.2501 C.ar    1  UNL1        0.1646
     18 C         144.6007  131.4832  155.6890 C.ar    1  UNL1        0.0405
     19 C         145.2327  131.5885  157.0453 C.ar    1  UNL1        0.0256
     20 C         144.8566  132.7141  157.9626 C.ar    1  UNL1        0.1207
     21 N         143.8486  133.7345  157.5237 N.ar    1  UNL1       -0.1616
     22 N         143.2167  133.6292  156.1674 N.ar    1  UNL1       -0.2030
     23 C         140.2193  142.6866  165.3329 C.ar    1  UNL1       -0.0100
     24 C         138.8601  142.2358  164.8863 C.ar    1  UNL1       -0.0020
     25 C         138.6324  141.8438  163.4563 C.ar    1  UNL1        0.0144
     26 C         139.7638  141.9027  162.4732 C.ar    1  UNL1        0.0502
     27 C         141.1228  142.3534  162.9199 C.ar    1  UNL1        0.0101
     28 C         141.3506  142.7454  164.3498 C.ar    1  UNL1       -0.0239
     29 C         142.7097  143.1962  164.7965 C.3     1  UNL1        0.0221
     30 C         143.8135  144.2117  164.7752 C.3     1  UNL1        0.0047
     31 C         143.9600  142.9616  165.5913 C.3     1  UNL1        0.0047
     32 C         140.4470  143.0785  166.7628 C.3     1  UNL1        0.0989
     33 N         142.5019  140.2307  169.5765 N.3     1  UNL1       -0.2682
     34 C         141.9072  139.7223  168.2967 C.3     1  UNL1        0.0897
     35 C         141.2223  140.6715  167.3588 C.3     1  UNL1        0.0899
     36 N         141.1320  142.1292  167.7007 N.3     1  UNL1       -0.2665
     37 C         141.7267  142.6377  168.9805 C.3     1  UNL1        0.0899
     38 C         142.4116  141.6884  169.9184 C.3     1  UNL1        0.0897
     39 C         143.1869  139.2813  170.5144 C.3     1  UNL1        0.1046
     40 C         142.9903  137.8023  170.3604 C.3     1  UNL1        0.1595
     41 C         144.4519  135.9441  171.4379 C.3     1  UNL1        0.1742
     42 O         144.1793  136.8894  170.3055 O.3     1  UNL1       -0.3496
@<TRIPOS>BOND
     1    41    42    1
     2    42    40    1
     3    40    39    1
     4    39    33    1
     5    33    34    1
     6    34    35    1
     7    35    36    1
     8    36    32    1
     9    32    23    1
    10    23    24   ar
    11    24    25   ar
    12    25    26   ar
    13    26     1    1
    14     1     2   am
    15     2     3    2
    16     2     5    1
    17     5     6   ar
    18     6     7   ar
    19     7     8   ar
    20     8     9    1
    21     8    10   ar
    22    10    12    1
    23    12    13    3
    24    13    14    1
    25    14    15   ar
    26    15    16   ar
    27    16    17   ar
    28    17    18   ar
    29    18    19   ar
    30    19    20   ar
    31    20    21   ar
    32    21    22   ar
    33    10    11   ar
    34    26    27   ar
    35    27    28   ar
    36    28    29    1
    37    29    30    1
    38    30    31    1
    39    36    37    1
    40    37    38    1
    41    38    33    1
    42    28    23   ar
    43    31    29    1
    44    11     5   ar
    45    22    14   ar
    46    22    17   ar
    47     1     4    1
@<TRIPOS>MOLECULE
*****
 42 47 0 0 0
SMALL
GASTEIGER

@<TRIPOS>ATOM
      1 N         143.7434  138.9394  159.3649 N.am    1  UNL1       -0.2804
      2 C         142.4479  138.3568  158.8832 C.2     1  UNL1        0.2495
      3 O         141.2406  138.3744  159.7733 O.2     1  UNL1       -0.2698
      4 H         144.5358  138.9278  158.7807 H       1  UNL1        0.1552
      5 C         142.3595  137.7565  157.5114 C.ar    1  UNL1        0.0543
      6 C         141.8633  138.5824  156.3617 C.ar    1  UNL1        0.0042
      7 C         141.7750  137.9821  154.9900 C.ar    1  UNL1       -0.0035
      8 C         142.1829  136.5558  154.7678 C.ar    1  UNL1       -0.0142
      9 C         142.0946  135.9555  153.3960 C.3     1  UNL1        0.0317
     10 C         142.6791  135.7299  155.9174 C.ar    1  UNL1        0.0382
     11 C         142.7674  136.3302  157.2892 C.ar    1  UNL1        0.0124
     12 C         143.0870  134.3036  155.6951 C.1     1  UNL1       -0.0585
     13 C         143.4949  132.8773  155.4729 C.1     1  UNL1       -0.0388
     14 C         143.9028  131.4511  155.2507 C.ar    1  UNL1        0.1451
     15 C         144.0258  130.7660  153.9219 C.ar    1  UNL1        0.1281
     16 N         144.4583  129.3510  154.1682 N.ar    1  UNL1       -0.2228
     17 C         144.6026  129.1615  155.6492 C.ar    1  UNL1        0.1646
     18 C         145.0022  127.9748  156.4750 C.ar    1  UNL1        0.0405
     19 C         145.0586  128.0861  157.9698 C.ar    1  UNL1        0.0256
     20 C         144.7152  129.3840  158.6388 C.ar    1  UNL1        0.1207
     21 N         144.3156  130.5707  157.8130 N.ar    1  UNL1       -0.1616
     22 N         144.2593  130.4595  156.3182 N.ar    1  UNL1       -0.2030
     23 C         144.0084  140.7402  163.4804 C.ar    1  UNL1       -0.0100
     24 C         144.1859  139.2623  163.2956 C.ar    1  UNL1       -0.0020
     25 C         144.0975  138.6620  161.9237 C.ar    1  UNL1        0.0144
     26 C         143.8318  139.5397  160.7367 C.ar    1  UNL1        0.0502
     27 C         143.6544  141.0176  160.9215 C.ar    1  UNL1        0.0101
     28 C         143.7427  141.6179  162.2933 C.ar    1  UNL1       -0.0239
     29 C         143.5653  143.0959  162.4780 C.3     1  UNL1        0.0221
     30 C         144.1408  144.4430  162.8007 C.3     1  UNL1        0.0047
     31 C         142.6826  144.3086  162.4754 C.3     1  UNL1        0.0047
     32 C         144.0968  141.3405  164.8521 C.3     1  UNL1        0.0989
     33 N         140.8454  140.5594  167.8635 N.3     1  UNL1       -0.2682
     34 C         140.8004  141.7953  167.0146 C.3     1  UNL1        0.0897
     35 C         141.8841  142.0557  166.0108 C.3     1  UNL1        0.0899
     36 N         143.0130  141.0802  165.8559 N.3     1  UNL1       -0.2665
     37 C         143.0581  139.8442  166.7048 C.3     1  UNL1        0.0899
     38 C         141.9743  139.5839  167.7086 C.3     1  UNL1        0.0897
     39 C         139.7616  140.2990  168.8673 C.3     1  UNL1        0.1046
     40 C         139.4170  141.3437  169.8870 C.3     1  UNL1        0.1595
     41 C         141.6113  140.8950  171.2037 C.3     1  UNL1        0.1742
     42 O         140.2202  141.4535  171.1491 O.3     1  UNL1       -0.3496
@<TRIPOS>BOND
     1    41    42    1
     2    42    40    1
     3    40    39    1
     4    39    33    1
     5    33    34    1
     6    34    35    1
     7    35    36    1
     8    36    32    1
     9    32    23    1
    10    23    24   ar
    11    24    25   ar
    12    25    26   ar
    13    26     1    1
    14     1     2   am
    15     2     3    2
    16     2     5    1
    17     5     6   ar
    18     6     7   ar
    19     7     8   ar
    20     8     9    1
    21     8    10   ar
    22    10    12    1
    23    12    13    3
    24    13    14    1
    25    14    15   ar
    26    15    16   ar
    27    16    17   ar
    28    17    18   ar
    29    18    19   ar
    30    19    20   ar
    31    20    21   ar
    32    21    22   ar
    33    10    11   ar
    34    26    27   ar
    35    27    28   ar
    36    28    29    1
    37    29    30    1
    38    30    31    1
    39    36    37    1
    40    37    38    1
    41    38    33    1
    42    28    23   ar
    43    31    29    1
    44    11     5   ar
    45    22    14   ar
    46    22    17   ar
    47     1     4    1
@<TRIPOS>MOLECULE
*****
 42 47 0 0 0
SMALL
GASTEIGER

@<TRIPOS>ATOM
      1 N         138.8673  139.1821  158.3281 N.am    1  UNL1       -0.2804
      2 C         138.7072  140.5957  157.8525 C.2     1  UNL1        0.2495
      3 O         139.4041  141.7126  158.5715 O.2     1  UNL1       -0.2698
      4 H         138.4099  138.4492  157.8562 H       1  UNL1        0.1552
      5 C         137.8501  140.8924  156.6578 C.ar    1  UNL1        0.0543
      6 C         138.4869  141.2630  155.3512 C.ar    1  UNL1        0.0042
      7 C         137.6298  141.5597  154.1566 C.ar    1  UNL1       -0.0035
      8 C         136.1358  141.4859  154.2684 C.ar    1  UNL1       -0.0142
      9 C         135.2786  141.7826  153.0737 C.3     1  UNL1        0.0317
     10 C         135.4989  141.1153  155.5749 C.ar    1  UNL1        0.0382
     11 C         136.3560  140.8185  156.7696 C.ar    1  UNL1        0.0124
     12 C         134.0049  141.0414  155.6867 C.1     1  UNL1       -0.0585
     13 C         132.5109  140.9675  155.7986 C.1     1  UNL1       -0.0388
     14 C         131.0169  140.8936  155.9104 C.ar    1  UNL1        0.1451
     15 C         130.0324  141.7006  155.1170 C.ar    1  UNL1        0.1281
     16 N         128.6522  141.3055  155.5515 N.ar    1  UNL1       -0.2228
     17 C         128.7836  140.2543  156.6135 C.ar    1  UNL1        0.1646
     18 C         127.7614  139.4961  157.4072 C.ar    1  UNL1        0.0405
     19 C         128.2006  138.4833  158.4227 C.ar    1  UNL1        0.0256
     20 C         129.6621  138.2287  158.6445 C.ar    1  UNL1        0.1207
     21 N         130.6844  138.9870  157.8508 N.ar    1  UNL1       -0.1616
     22 N         130.2451  139.9998  156.8353 N.ar    1  UNL1       -0.2030
     23 C         141.4387  138.2919  161.9122 C.ar    1  UNL1       -0.0100
     24 C         142.0583  138.3856  160.5494 C.ar    1  UNL1       -0.0020
     25 C         141.2011  138.6824  159.3547 C.ar    1  UNL1        0.0144
     26 C         139.7244  138.8854  159.5228 C.ar    1  UNL1        0.0502
     27 C         139.1049  138.7917  160.8857 C.ar    1  UNL1        0.0101
     28 C         139.9620  138.4950  162.0804 C.ar    1  UNL1       -0.0239
     29 C         139.3425  138.4013  163.4432 C.3     1  UNL1        0.0221
     30 C         138.9207  137.5789  164.6247 C.3     1  UNL1        0.0047
     31 C         138.6912  139.0613  164.6223 C.3     1  UNL1        0.0047
     32 C         142.2958  137.9952  163.1069 C.3     1  UNL1        0.0989
     33 N         142.7821  141.0782  166.3486 N.3     1  UNL1       -0.2682
     34 C         142.6446  139.6282  166.7071 C.3     1  UNL1        0.0897
     35 C         142.4825  138.6005  165.6266 C.3     1  UNL1        0.0899
     36 N         142.4579  139.0228  164.1875 N.3     1  UNL1       -0.2665
     37 C         142.5954  140.4729  163.8289 C.3     1  UNL1        0.0899
     38 C         142.7575  141.5005  164.9095 C.3     1  UNL1        0.0897
     39 C         142.9442  142.1059  167.4292 C.3     1  UNL1        0.1046
     40 C         142.9008  141.6921  168.8704 C.3     1  UNL1        0.1595
     41 C         140.7428  143.0953  169.2220 C.3     1  UNL1        0.1742
     42 O         141.8590  142.2660  169.7843 O.3     1  UNL1       -0.3496
@<TRIPOS>BOND
     1    41    42    1
     2    42    40    1
     3    40    39    1
     4    39    33    1
     5    33    34    1
     6    34    35    1
     7    35    36    1
     8    36    32    1
     9    32    23    1
    10    23    24   ar
    11    24    25   ar
    12    25    26   ar
    13    26     1    1
    14     1     2   am
    15     2     3    2
    16     2     5    1
    17     5     6   ar
    18     6     7   ar
    19     7     8   ar
    20     8     9    1
    21     8    10   ar
    22    10    12    1
    23    12    13    3
    24    13    14    1
    25    14    15   ar
    26    15    16   ar
    27    16    17   ar
    28    17    18   ar
    29    18    19   ar
    30    19    20   ar
    31    20    21   ar
    32    21    22   ar
    33    10    11   ar
    34    26    27   ar
    35    27    28   ar
    36    28    29    1
    37    29    30    1
    38    30    31    1
    39    36    37    1
    40    37    38    1
    41    38    33    1
    42    28    23   ar
    43    31    29    1
    44    11     5   ar
    45    22    14   ar
    46    22    17   ar
    47     1     4    1
@<TRIPOS>MOLECULE
*****
 42 47 0 0 0
SMALL
GASTEIGER

@<TRIPOS>ATOM
      1 N         137.8643  140.1013  159.1274 N.am    1  UNL1       -0.2804
      2 C         138.5179  140.5055  157.8392 C.2     1  UNL1        0.2495
      3 O         140.0117  140.6161  157.7584 O.2     1  UNL1       -0.2698
      4 H         136.8839  140.0287  159.1804 H       1  UNL1        0.1552
      5 C         137.6777  140.7992  156.6318 C.ar    1  UNL1        0.0543
      6 C         138.3337  141.1090  155.3188 C.ar    1  UNL1        0.0042
      7 C         137.4935  141.4027  154.1115 C.ar    1  UNL1       -0.0035
      8 C         135.9973  141.3866  154.2170 C.ar    1  UNL1       -0.0142
      9 C         135.1571  141.6802  153.0096 C.3     1  UNL1        0.0317
     10 C         135.3413  141.0768  155.5299 C.ar    1  UNL1        0.0382
     11 C         136.1815  140.7831  156.7373 C.ar    1  UNL1        0.0124
     12 C         133.8451  141.0606  155.6353 C.1     1  UNL1       -0.0585
     13 C         132.3489  141.0446  155.7408 C.1     1  UNL1       -0.0388
     14 C         130.8527  141.0285  155.8463 C.ar    1  UNL1        0.1451
     15 C         129.9016  141.8406  155.0180 C.ar    1  UNL1        0.1281
     16 N         128.5060  141.5114  155.4584 N.ar    1  UNL1       -0.2228
     17 C         128.5945  140.4959  156.5588 C.ar    1  UNL1        0.1646
     18 C         127.5419  139.8044  157.3735 C.ar    1  UNL1        0.0405
     19 C         127.9396  138.8145  158.4279 C.ar    1  UNL1        0.0256
     20 C         129.3899  138.5160  158.6676 C.ar    1  UNL1        0.1207
     21 N         130.4425  139.2075  157.8530 N.ar    1  UNL1       -0.1616
     22 N         130.0449  140.1975  156.7985 N.ar    1  UNL1       -0.2030
     23 C         140.3849  139.2202  162.7497 C.ar    1  UNL1       -0.0100
     24 C         139.8396  138.0934  161.9233 C.ar    1  UNL1       -0.0020
     25 C         138.9994  138.3871  160.7159 C.ar    1  UNL1        0.0144
     26 C         138.7045  139.8076  160.3348 C.ar    1  UNL1        0.0502
     27 C         139.2498  140.9344  161.1612 C.ar    1  UNL1        0.0101
     28 C         140.0900  140.6407  162.3686 C.ar    1  UNL1       -0.0239
     29 C         140.6353  141.7675  163.1949 C.3     1  UNL1        0.0221
     30 C         141.7934  142.6127  163.6362 C.3     1  UNL1        0.0047
     31 C         140.4219  142.8741  164.1849 C.3     1  UNL1        0.0047
     32 C         141.2251  138.9265  163.9571 C.3     1  UNL1        0.0989
     33 N         139.6739  139.8979  168.0680 N.3     1  UNL1       -0.2682
     34 C         138.7452  139.3470  167.0268 C.3     1  UNL1        0.0897
     35 C         139.2622  139.0232  165.6565 C.3     1  UNL1        0.0899
     36 N         140.7080  139.2503  165.3274 N.3     1  UNL1       -0.2665
     37 C         141.6367  139.8013  166.3686 C.3     1  UNL1        0.0899
     38 C         141.1196  140.1251  167.7389 C.3     1  UNL1        0.0897
     39 C         139.1567  140.2217  169.4384 C.3     1  UNL1        0.1046
     40 C         140.0379  140.0303  170.6371 C.3     1  UNL1        0.1595
     41 C         141.7284  141.9307  171.1667 C.3     1  UNL1        0.1742
     42 O         140.4454  141.2130  171.4648 O.3     1  UNL1       -0.3496
@<TRIPOS>BOND
     1    41    42    1
     2    42    40    1
     3    40    39    1
     4    39    33    1
     5    33    34    1
     6    34    35    1
     7    35    36    1
     8    36    32    1
     9    32    23    1
    10    23    24   ar
    11    24    25   ar
    12    25    26   ar
    13    26     1    1
    14     1     2   am
    15     2     3    2
    16     2     5    1
    17     5     6   ar
    18     6     7   ar
    19     7     8   ar
    20     8     9    1
    21     8    10   ar
    22    10    12    1
    23    12    13    3
    24    13    14    1
    25    14    15   ar
    26    15    16   ar
    27    16    17   ar
    28    17    18   ar
    29    18    19   ar
    30    19    20   ar
    31    20    21   ar
    32    21    22   ar
    33    10    11   ar
    34    26    27   ar
    35    27    28   ar
    36    28    29    1
    37    29    30    1
    38    30    31    1
    39    36    37    1
    40    37    38    1
    41    38    33    1
    42    28    23   ar
    43    31    29    1
    44    11     5   ar
    45    22    14   ar
    46    22    17   ar
    47     1     4    1
@<TRIPOS>MOLECULE
*****
 42 47 0 0 0
SMALL
GASTEIGER

@<TRIPOS>ATOM
      1 N         141.5930  138.4359  159.2428 N.am    1  UNL1       -0.2804
      2 C         142.6491  138.4700  158.1781 C.2     1  UNL1        0.2495
      3 O         143.8237  139.3926  158.3161 O.2     1  UNL1       -0.2698
      4 H         140.8221  137.8303  159.1522 H       1  UNL1        0.1552
      5 C         142.5305  137.5816  156.9754 C.ar    1  UNL1        0.0543
      6 C         142.3196  138.1821  155.6170 C.ar    1  UNL1        0.0042
      7 C         142.2011  137.2936  154.4144 C.ar    1  UNL1       -0.0035
      8 C         142.2934  135.8046  154.5699 C.ar    1  UNL1       -0.0142
      9 C         142.1748  134.9161  153.3672 C.3     1  UNL1        0.0317
     10 C         142.5042  135.2041  155.9281 C.ar    1  UNL1        0.0382
     11 C         142.6228  136.0925  157.1309 C.ar    1  UNL1        0.0124
     12 C         142.5965  133.7150  156.0836 C.1     1  UNL1       -0.0585
     13 C         142.6888  132.2259  156.2390 C.1     1  UNL1       -0.0388
     14 C         142.7811  130.7368  156.3945 C.ar    1  UNL1        0.1451
     15 C         143.8216  129.9952  157.1802 C.ar    1  UNL1        0.1281
     16 N         143.5326  128.5280  157.0628 N.ar    1  UNL1       -0.2228
     17 C         142.3135  128.3628  156.2047 C.ar    1  UNL1        0.1646
     18 C         141.5663  127.1458  155.7460 C.ar    1  UNL1        0.0405
     19 C         140.3547  127.2938  154.8743 C.ar    1  UNL1        0.0256
     20 C         139.8902  128.6590  154.4612 C.ar    1  UNL1        0.1207
     21 N         140.6374  129.8761  154.9199 N.ar    1  UNL1       -0.1616
     22 N         141.8490  129.7280  155.7916 N.ar    1  UNL1       -0.2030
     23 C         141.9487  141.1013  162.8510 C.ar    1  UNL1       -0.0100
     24 C         141.0241  141.4753  161.7306 C.ar    1  UNL1       -0.0020
     25 C         140.9056  140.5867  160.5278 C.ar    1  UNL1        0.0144
     26 C         141.7116  139.3243  160.4455 C.ar    1  UNL1        0.0502
     27 C         142.6361  138.9505  161.5660 C.ar    1  UNL1        0.0101
     28 C         142.7547  139.8389  162.7687 C.ar    1  UNL1       -0.0239
     29 C         143.6792  139.4650  163.8891 C.3     1  UNL1        0.0221
     30 C         143.8958  138.8907  165.2578 C.3     1  UNL1        0.0047
     31 C         145.0640  139.3916  164.4610 C.3     1  UNL1        0.0047
     32 C         142.0673  141.9898  164.0537 C.3     1  UNL1        0.0989
     33 N         140.1249  140.7958  167.9333 N.3     1  UNL1       -0.2682
     34 C         139.4938  140.4096  166.6285 C.3     1  UNL1        0.0897
     35 C         140.1412  140.8075  165.3353 C.3     1  UNL1        0.0899
     36 N         141.4198  141.5918  165.3469 N.3     1  UNL1       -0.2665
     37 C         142.0510  141.9780  166.6517 C.3     1  UNL1        0.0899
     38 C         141.4035  141.5800  167.9449 C.3     1  UNL1        0.0897
     39 C         139.4774  140.3977  169.2266 C.3     1  UNL1        0.1046
     40 C         140.2689  140.4228  170.5005 C.3     1  UNL1        0.1595
     41 C         139.6616  142.9274  170.8286 C.3     1  UNL1        0.1742
     42 O         140.3741  141.6919  171.2931 O.3     1  UNL1       -0.3496
@<TRIPOS>BOND
     1    41    42    1
     2    42    40    1
     3    40    39    1
     4    39    33    1
     5    33    34    1
     6    34    35    1
     7    35    36    1
     8    36    32    1
     9    32    23    1
    10    23    24   ar
    11    24    25   ar
    12    25    26   ar
    13    26     1    1
    14     1     2   am
    15     2     3    2
    16     2     5    1
    17     5     6   ar
    18     6     7   ar
    19     7     8   ar
    20     8     9    1
    21     8    10   ar
    22    10    12    1
    23    12    13    3
    24    13    14    1
    25    14    15   ar
    26    15    16   ar
    27    16    17   ar
    28    17    18   ar
    29    18    19   ar
    30    19    20   ar
    31    20    21   ar
    32    21    22   ar
    33    10    11   ar
    34    26    27   ar
    35    27    28   ar
    36    28    29    1
    37    29    30    1
    38    30    31    1
    39    36    37    1
    40    37    38    1
    41    38    33    1
    42    28    23   ar
    43    31    29    1
    44    11     5   ar
    45    22    14   ar
    46    22    17   ar
    47     1     4    1
