@<TRIPOS>MOLECULE
*****
 33 34 0 0 0
SMALL
GASTEIGER

@<TRIPOS>ATOM
      1 C         140.5662  140.1876  168.7547 C.3     1  UNL1        0.2430
      2 C         140.2572  140.5349  170.1808 C.2     1  UNL1        0.2845
      3 O         139.4127  139.6142  171.0109 O.2     1  UNL1       -0.2691
      4 N         140.7929  141.8029  170.7769 N.am    1  UNL1       -0.1940
      5 O         140.4839  142.1502  172.2031 O.3     1  UNL1       -0.2951
      6 H         141.3471  142.4072  170.2321 H       1  UNL1        0.1823
      7 H         139.9315  141.4546  172.5929 H       1  UNL1        0.2414
      8 C         139.4920  140.2770  167.7114 C.3     1  UNL1        0.0533
      9 C         138.4278  139.2225  167.6384 C.3     1  UNL1        0.0057
     10 C         138.0139  138.6656  166.3086 C.3     1  UNL1        0.0172
     11 C         139.0068  138.5855  165.1870 C.3     1  UNL1        0.0688
     12 N         138.6421  139.0960  163.8246 N.3     1  UNL1       -0.2951
     13 H         138.8490  138.3466  163.1642 H       1  UNL1        0.1235
     14 C         139.2933  140.3367  163.2894 C.3     1  UNL1        0.0768
     15 C         139.0812  141.6520  163.9786 C.ar    1  UNL1       -0.0079
     16 C         140.1276  142.1880  164.9100 C.ar    1  UNL1       -0.0007
     17 C         139.9155  143.5033  165.5992 C.ar    1  UNL1        0.0294
     18 C         138.6570  144.2826  165.3569 C.ar    1  UNL1        0.1401
     19 F         138.4448  145.5980  166.0461 F       1  UNL1       -0.2042
     20 C         137.6105  143.7466  164.4254 C.ar    1  UNL1        0.0294
     21 C         137.8226  142.4313  163.7362 C.ar    1  UNL1       -0.0007
     22 C         141.0813  141.3946  161.7292 C.3     1  UNL1        0.0018
     23 C         140.1568  140.2621  162.0650 C.3     1  UNL1        0.0202
     24 O         141.9491  139.7510  168.3717 O.3     1  UNL1       -0.4699
     25 C         142.5332  140.1770  167.0573 C.ar    1  UNL1        0.1386
     26 C         143.0774  141.5650  166.8931 C.ar    1  UNL1        0.0349
     27 C         143.6614  141.9909  165.5787 C.ar    1  UNL1        0.0083
     28 C         144.2056  143.3791  165.4144 C.3     1  UNL1        0.0335
     29 C         143.7011  141.0288  164.4287 C.ar    1  UNL1        0.1323
     30 F         144.2852  141.4547  163.1143 F       1  UNL1       -0.2048
     31 C         143.1569  139.6407  164.5929 C.ar    1  UNL1        0.0083
     32 C         143.1967  138.6785  163.4429 C.3     1  UNL1        0.0335
     33 C         142.5729  139.2148  165.9073 C.ar    1  UNL1        0.0349
@<TRIPOS>BOND
     1    22    23    1
     2    23    14    1
     3    14    12    1
     4    12    11    1
     5    11    10    1
     6    10     9    1
     7     9     8    1
     8     1     8    1
     9     1    24    1
    10    24    25    1
    11    25    26   ar
    12    26    27   ar
    13    27    28    1
    14    27    29   ar
    15    29    30    1
    16    29    31   ar
    17    31    32    1
    18    31    33   ar
    19     1     2    1
    20     2     3    2
    21     2     4   am
    22     4     5    1
    23    14    15    1
    24    15    16   ar
    25    16    17   ar
    26    17    18   ar
    27    18    19    1
    28    18    20   ar
    29    20    21   ar
    30    33    25   ar
    31    21    15   ar
    32    12    13    1
    33     4     6    1
    34     5     7    1
@<TRIPOS>MOLECULE
*****
 33 34 0 0 0
SMALL
GASTEIGER

@<TRIPOS>ATOM
      1 C         141.8684  144.5410  163.3692 C.3     1  UNL1        0.2430
      2 C         141.1768  145.1971  162.2111 C.2     1  UNL1        0.2845
      3 O         141.7063  145.0140  160.8197 O.2     1  UNL1       -0.2691
      4 N         139.9556  146.0364  162.4445 N.am    1  UNL1       -0.1940
      5 O         139.2640  146.6925  161.2864 O.3     1  UNL1       -0.2951
      6 H         139.6080  146.1565  163.3578 H       1  UNL1        0.1823
      7 H         139.7311  146.4741  160.4649 H       1  UNL1        0.2414
      8 C         143.2868  144.0735  163.2287 C.3     1  UNL1        0.0533
      9 C         143.5858  142.6080  163.1157 C.3     1  UNL1        0.0057
     10 C         144.0206  141.8358  164.3259 C.3     1  UNL1        0.0172
     11 C         145.0266  140.7315  164.1894 C.3     1  UNL1        0.0688
     12 N         144.5673  139.3237  163.9511 N.3     1  UNL1       -0.2951
     13 H         144.2794  139.2693  162.9741 H       1  UNL1        0.1235
     14 C         143.4444  138.7531  164.7657 C.3     1  UNL1        0.0768
     15 C         142.0954  138.5472  164.1431 C.ar    1  UNL1       -0.0079
     16 C         141.6911  139.3544  162.9453 C.ar    1  UNL1       -0.0007
     17 C         140.3420  139.1485  162.3226 C.ar    1  UNL1        0.0294
     18 C         139.3973  138.1353  162.8978 C.ar    1  UNL1        0.1401
     19 F         138.0483  137.9294  162.2752 F       1  UNL1       -0.2042
     20 C         139.8016  137.3280  164.0957 C.ar    1  UNL1        0.0294
     21 C         141.1506  137.5339  164.7183 C.ar    1  UNL1       -0.0007
     22 C         142.9745  139.1534  167.2894 C.3     1  UNL1        0.0018
     23 C         143.6706  138.3884  166.2031 C.3     1  UNL1        0.0202
     24 O         141.1417  144.3522  164.6677 O.3     1  UNL1       -0.4699
     25 C         140.2754  143.1451  164.8739 C.ar    1  UNL1        0.1386
     26 C         140.4452  142.3010  166.1022 C.ar    1  UNL1        0.0349
     27 C         139.5789  141.0939  166.3082 C.ar    1  UNL1        0.0083
     28 C         139.7487  140.2498  167.5366 C.3     1  UNL1        0.0335
     29 C         138.5429  140.7309  165.2860 C.ar    1  UNL1        0.1323
     30 F         137.6767  139.5237  165.4922 F       1  UNL1       -0.2048
     31 C         138.3732  141.5749  164.0578 C.ar    1  UNL1        0.0083
     32 C         137.3372  141.2119  163.0356 C.3     1  UNL1        0.0335
     33 C         139.2394  142.7820  163.8517 C.ar    1  UNL1        0.0349
@<TRIPOS>BOND
     1    22    23    1
     2    23    14    1
     3    14    12    1
     4    12    11    1
     5    11    10    1
     6    10     9    1
     7     9     8    1
     8     1     8    1
     9     1    24    1
    10    24    25    1
    11    25    26   ar
    12    26    27   ar
    13    27    28    1
    14    27    29   ar
    15    29    30    1
    16    29    31   ar
    17    31    32    1
    18    31    33   ar
    19     1     2    1
    20     2     3    2
    21     2     4   am
    22     4     5    1
    23    14    15    1
    24    15    16   ar
    25    16    17   ar
    26    17    18   ar
    27    18    19    1
    28    18    20   ar
    29    20    21   ar
    30    33    25   ar
    31    21    15   ar
    32    12    13    1
    33     4     6    1
    34     5     7    1
@<TRIPOS>MOLECULE
*****
 33 34 0 0 0
SMALL
GASTEIGER

@<TRIPOS>ATOM
      1 C         141.2423  141.2689  169.9273 C.3     1  UNL1        0.2430
      2 C         140.6649  142.4923  170.5754 C.2     1  UNL1        0.2845
      3 O         140.2350  142.4481  172.0117 O.2     1  UNL1       -0.2691
      4 N         140.5174  143.7599  169.7869 N.am    1  UNL1       -0.1940
      5 O         139.9400  144.9833  170.4350 O.3     1  UNL1       -0.2951
      6 H         140.7996  143.7889  168.8442 H       1  UNL1        0.1823
      7 H         139.7161  144.7852  171.3578 H       1  UNL1        0.2414
      8 C         140.4063  140.0319  169.7816 C.3     1  UNL1        0.0533
      9 C         139.1868  140.0495  168.9086 C.3     1  UNL1        0.0057
     10 C         139.3159  139.8028  167.4347 C.3     1  UNL1        0.0172
     11 C         138.2802  138.9892  166.7168 C.3     1  UNL1        0.0688
     12 N         137.6331  139.5262  165.4747 N.3     1  UNL1       -0.2951
     13 H         136.9420  138.8359  165.1808 H       1  UNL1        0.1235
     14 C         138.4691  139.8421  164.2701 C.3     1  UNL1        0.0768
     15 C         139.0796  141.2037  164.1170 C.ar    1  UNL1       -0.0079
     16 C         138.4698  142.3820  164.8169 C.ar    1  UNL1       -0.0007
     17 C         139.0803  143.7436  164.6638 C.ar    1  UNL1        0.0294
     18 C         140.3006  143.9268  163.8109 C.ar    1  UNL1        0.1401
     19 F         140.9111  145.2884  163.6579 F       1  UNL1       -0.2042
     20 C         140.9103  142.7485  163.1111 C.ar    1  UNL1        0.0294
     21 C         140.2998  141.3869  163.2641 C.ar    1  UNL1       -0.0007
     22 C         137.9045  138.8320  161.9440 C.3     1  UNL1        0.0018
     23 C         138.6946  138.7965  163.2185 C.3     1  UNL1        0.0202
     24 O         142.6556  141.2825  169.4250 O.3     1  UNL1       -0.4699
     25 C         142.9294  141.1879  167.9532 C.ar    1  UNL1        0.1386
     26 C         142.8151  139.8667  167.2524 C.ar    1  UNL1        0.0349
     27 C         143.0889  139.7722  165.7807 C.ar    1  UNL1        0.0083
     28 C         142.9745  138.4509  165.0798 C.3     1  UNL1        0.0335
     29 C         143.4771  140.9990  165.0098 C.ar    1  UNL1        0.1323
     30 F         143.7509  140.9044  163.5380 F       1  UNL1       -0.2048
     31 C         143.5915  142.3202  165.7106 C.ar    1  UNL1        0.0083
     32 C         143.9797  143.5470  164.9396 C.3     1  UNL1        0.0335
     33 C         143.3177  142.4147  167.1823 C.ar    1  UNL1        0.0349
@<TRIPOS>BOND
     1    22    23    1
     2    23    14    1
     3    14    12    1
     4    12    11    1
     5    11    10    1
     6    10     9    1
     7     9     8    1
     8     1     8    1
     9     1    24    1
    10    24    25    1
    11    25    26   ar
    12    26    27   ar
    13    27    28    1
    14    27    29   ar
    15    29    30    1
    16    29    31   ar
    17    31    32    1
    18    31    33   ar
    19     1     2    1
    20     2     3    2
    21     2     4   am
    22     4     5    1
    23    14    15    1
    24    15    16   ar
    25    16    17   ar
    26    17    18   ar
    27    18    19    1
    28    18    20   ar
    29    20    21   ar
    30    33    25   ar
    31    21    15   ar
    32    12    13    1
    33     4     6    1
    34     5     7    1
@<TRIPOS>MOLECULE
*****
 33 34 0 0 0
SMALL
GASTEIGER

@<TRIPOS>ATOM
      1 C         143.7354  139.0638  163.5917 C.3     1  UNL1        0.2430
      2 C         144.5764  140.1354  162.9637 C.2     1  UNL1        0.2845
      3 O         144.4087  140.4649  161.5100 O.2     1  UNL1       -0.2691
      4 N         145.5852  140.8775  163.7894 N.am    1  UNL1       -0.1940
      5 O         146.4262  141.9490  163.1613 O.3     1  UNL1       -0.2951
      6 H         145.6953  140.6612  164.7435 H       1  UNL1        0.1823
      7 H         146.1933  142.0348  162.2236 H       1  UNL1        0.2414
      8 C         142.7888  138.2623  162.7480 C.3     1  UNL1        0.0533
      9 C         141.4096  137.9567  163.2522 C.3     1  UNL1        0.0057
     10 C         140.2508  137.9349  162.3001 C.3     1  UNL1        0.0172
     11 C         138.8485  137.8553  162.8269 C.3     1  UNL1        0.0688
     12 N         138.0020  139.0916  162.8959 N.3     1  UNL1       -0.2951
     13 H         138.1330  139.5878  162.0144 H       1  UNL1        0.1235
     14 C         138.2223  140.0912  163.9924 C.3     1  UNL1        0.0768
     15 C         138.5446  141.5166  163.6542 C.ar    1  UNL1       -0.0079
     16 C         137.6699  142.6242  164.1622 C.ar    1  UNL1       -0.0007
     17 C         137.9922  144.0496  163.8240 C.ar    1  UNL1        0.0294
     18 C         139.1892  144.3674  162.9777 C.ar    1  UNL1        0.1401
     19 F         139.5115  145.7928  162.6395 F       1  UNL1       -0.2042
     20 C         140.0640  143.2598  162.4697 C.ar    1  UNL1        0.0294
     21 C         139.7417  141.8344  162.8079 C.ar    1  UNL1       -0.0007
     22 C         139.2341  138.8837  166.0584 C.3     1  UNL1        0.0018
     23 C         138.1204  139.6654  165.4271 C.3     1  UNL1        0.0202
     24 O         143.8408  138.7937  165.0634 O.3     1  UNL1       -0.4699
     25 C         143.0139  139.5857  166.0325 C.ar    1  UNL1        0.1386
     26 C         142.3526  140.8572  165.5899 C.ar    1  UNL1        0.0349
     27 C         141.5257  141.6492  166.5590 C.ar    1  UNL1        0.0083
     28 C         140.8644  142.9208  166.1165 C.3     1  UNL1        0.0335
     29 C         141.3601  141.1695  167.9706 C.ar    1  UNL1        0.1323
     30 F         140.5332  141.9615  168.9396 F       1  UNL1       -0.2048
     31 C         142.0214  139.8980  168.4131 C.ar    1  UNL1        0.0083
     32 C         141.8558  139.4184  169.8247 C.3     1  UNL1        0.0335
     33 C         142.8483  139.1061  167.4440 C.ar    1  UNL1        0.0349
@<TRIPOS>BOND
     1    22    23    1
     2    23    14    1
     3    14    12    1
     4    12    11    1
     5    11    10    1
     6    10     9    1
     7     9     8    1
     8     1     8    1
     9     1    24    1
    10    24    25    1
    11    25    26   ar
    12    26    27   ar
    13    27    28    1
    14    27    29   ar
    15    29    30    1
    16    29    31   ar
    17    31    32    1
    18    31    33   ar
    19     1     2    1
    20     2     3    2
    21     2     4   am
    22     4     5    1
    23    14    15    1
    24    15    16   ar
    25    16    17   ar
    26    17    18   ar
    27    18    19    1
    28    18    20   ar
    29    20    21   ar
    30    33    25   ar
    31    21    15   ar
    32    12    13    1
    33     4     6    1
    34     5     7    1
@<TRIPOS>MOLECULE
*****
 33 34 0 0 0
SMALL
GASTEIGER

@<TRIPOS>ATOM
      1 C         142.3646  143.3693  162.3785 C.3     1  UNL1        0.2430
      2 C         141.8382  144.7244  162.7479 C.2     1  UNL1        0.2845
      3 O         142.3189  145.4007  163.9975 O.2     1  UNL1       -0.2691
      4 N         140.8310  145.4033  161.8676 N.am    1  UNL1       -0.1940
      5 O         140.3046  146.7585  162.2370 O.3     1  UNL1       -0.2951
      6 H         140.5155  144.9595  161.0474 H       1  UNL1        0.1823
      7 H         140.7149  147.0497  163.0663 H       1  UNL1        0.2414
      8 C         141.7467  142.6087  161.2427 C.3     1  UNL1        0.0533
      9 C         140.6001  141.6766  161.5001 C.3     1  UNL1        0.0057
     10 C         139.1990  142.1045  161.1781 C.3     1  UNL1        0.0172
     11 C         138.1159  141.0770  161.0317 C.3     1  UNL1        0.0688
     12 N         137.4715  140.4876  162.2512 N.3     1  UNL1       -0.2951
     13 H         137.2101  141.2687  162.8528 H       1  UNL1        0.1235
     14 C         138.2316  139.5178  163.1066 C.3     1  UNL1        0.0768
     15 C         138.6330  139.9014  164.5000 C.ar    1  UNL1       -0.0079
     16 C         138.4856  138.9158  165.6211 C.ar    1  UNL1       -0.0007
     17 C         138.8870  139.2994  167.0146 C.ar    1  UNL1        0.0294
     18 C         139.4358  140.6685  167.2869 C.ar    1  UNL1        0.1401
     19 F         139.8372  141.0521  168.6804 F       1  UNL1       -0.2042
     20 C         139.5833  141.6542  166.1658 C.ar    1  UNL1        0.0294
     21 C         139.1819  141.2706  164.7723 C.ar    1  UNL1       -0.0007
     22 C         140.0177  137.8426  162.2385 C.3     1  UNL1        0.0018
     23 C         138.5903  138.1643  162.5685 C.3     1  UNL1        0.0202
     24 O         143.5088  142.7747  163.1448 O.3     1  UNL1       -0.4699
     25 C         143.2419  141.9216  164.3495 C.ar    1  UNL1        0.1386
     26 C         143.3438  142.5125  165.7244 C.ar    1  UNL1        0.0349
     27 C         143.0769  141.6595  166.9290 C.ar    1  UNL1        0.0083
     28 C         143.1788  142.2504  168.3040 C.3     1  UNL1        0.0335
     29 C         142.7081  140.2155  166.7586 C.ar    1  UNL1        0.1323
     30 F         142.4413  139.3625  167.9633 F       1  UNL1       -0.2048
     31 C         142.6063  139.6246  165.3837 C.ar    1  UNL1        0.0083
     32 C         142.2375  138.1807  165.2134 C.3     1  UNL1        0.0335
     33 C         142.8731  140.4777  164.1792 C.ar    1  UNL1        0.0349
@<TRIPOS>BOND
     1    22    23    1
     2    23    14    1
     3    14    12    1
     4    12    11    1
     5    11    10    1
     6    10     9    1
     7     9     8    1
     8     1     8    1
     9     1    24    1
    10    24    25    1
    11    25    26   ar
    12    26    27   ar
    13    27    28    1
    14    27    29   ar
    15    29    30    1
    16    29    31   ar
    17    31    32    1
    18    31    33   ar
    19     1     2    1
    20     2     3    2
    21     2     4   am
    22     4     5    1
    23    14    15    1
    24    15    16   ar
    25    16    17   ar
    26    17    18   ar
    27    18    19    1
    28    18    20   ar
    29    20    21   ar
    30    33    25   ar
    31    21    15   ar
    32    12    13    1
    33     4     6    1
    34     5     7    1
@<TRIPOS>MOLECULE
*****
 33 34 0 0 0
SMALL
GASTEIGER

@<TRIPOS>ATOM
      1 C         140.4966  144.9303  163.0108 C.3     1  UNL1        0.2430
      2 C         140.5290  145.4858  161.6178 C.2     1  UNL1        0.2845
      3 O         139.3897  146.3236  161.1178 O.2     1  UNL1       -0.2691
      4 N         141.7007  145.2034  160.7248 N.am    1  UNL1       -0.1940
      5 O         141.7331  145.7588  159.3318 O.3     1  UNL1       -0.2951
      6 H         142.4485  144.6534  161.0530 H       1  UNL1        0.1823
      7 H         140.9266  146.2729  159.1699 H       1  UNL1        0.2414
      8 C         141.6185  145.2249  163.9620 C.3     1  UNL1        0.0533
      9 C         143.0274  144.8645  163.5947 C.3     1  UNL1        0.0057
     10 C         144.0026  144.4670  164.6628 C.3     1  UNL1        0.0172
     11 C         144.4240  143.0337  164.7980 C.3     1  UNL1        0.0688
     12 N         143.4798  141.9346  164.4099 N.3     1  UNL1       -0.2951
     13 H         142.5817  142.3749  164.2101 H       1  UNL1        0.1235
     14 C         143.2077  140.8085  165.3626 C.3     1  UNL1        0.0768
     15 C         142.2164  140.9892  166.4738 C.ar    1  UNL1       -0.0079
     16 C         141.6292  142.3431  166.7423 C.ar    1  UNL1       -0.0007
     17 C         140.6380  142.5237  167.8535 C.ar    1  UNL1        0.0294
     18 C         140.2339  141.3505  168.6962 C.ar    1  UNL1        0.1401
     19 F         139.2426  141.5312  169.8074 F       1  UNL1       -0.2042
     20 C         140.8211  139.9965  168.4278 C.ar    1  UNL1        0.0294
     21 C         141.8123  139.8158  167.3166 C.ar    1  UNL1       -0.0007
     22 C         144.7033  139.2198  163.9522 C.3     1  UNL1        0.0018
     23 C         143.9268  139.5016  165.2042 C.3     1  UNL1        0.0202
     24 O         139.3425  144.0802  163.4526 O.3     1  UNL1       -0.4699
     25 C         139.5178  142.5983  163.6058 C.ar    1  UNL1        0.1386
     26 C         138.7586  141.8591  164.6674 C.ar    1  UNL1        0.0349
     27 C         138.9340  140.3773  164.8206 C.ar    1  UNL1        0.0083
     28 C         138.1748  139.6380  165.8823 C.3     1  UNL1        0.0335
     29 C         139.8686  139.6348  163.9122 C.ar    1  UNL1        0.1323
     30 F         140.0439  138.1529  164.0654 F       1  UNL1       -0.2048
     31 C         140.6278  140.3740  162.8506 C.ar    1  UNL1        0.0083
     32 C         141.5623  139.6315  161.9421 C.3     1  UNL1        0.0335
     33 C         140.4524  141.8558  162.6974 C.ar    1  UNL1        0.0349
@<TRIPOS>BOND
     1    22    23    1
     2    23    14    1
     3    14    12    1
     4    12    11    1
     5    11    10    1
     6    10     9    1
     7     9     8    1
     8     1     8    1
     9     1    24    1
    10    24    25    1
    11    25    26   ar
    12    26    27   ar
    13    27    28    1
    14    27    29   ar
    15    29    30    1
    16    29    31   ar
    17    31    32    1
    18    31    33   ar
    19     1     2    1
    20     2     3    2
    21     2     4   am
    22     4     5    1
    23    14    15    1
    24    15    16   ar
    25    16    17   ar
    26    17    18   ar
    27    18    19    1
    28    18    20   ar
    29    20    21   ar
    30    33    25   ar
    31    21    15   ar
    32    12    13    1
    33     4     6    1
    34     5     7    1
@<TRIPOS>MOLECULE
*****
 33 34 0 0 0
SMALL
GASTEIGER

@<TRIPOS>ATOM
      1 C         139.1769  138.8191  164.2680 C.3     1  UNL1        0.2430
      2 C         140.3713  138.0456  163.7936 C.2     1  UNL1        0.2845
      3 O         141.2861  137.3940  164.7878 O.2     1  UNL1       -0.2691
      4 N         140.6509  137.9236  162.3249 N.am    1  UNL1       -0.1940
      5 O         141.8453  137.1501  161.8505 O.3     1  UNL1       -0.2951
      6 H         140.0504  138.3513  161.6723 H       1  UNL1        0.1823
      7 H         142.3264  136.7970  162.6152 H       1  UNL1        0.2414
      8 C         138.4989  138.4396  165.5511 C.3     1  UNL1        0.0533
      9 C         138.5490  139.3672  166.7288 C.3     1  UNL1        0.0057
     10 C         139.8705  139.8596  167.2398 C.3     1  UNL1        0.0172
     11 C         139.9477  141.1532  167.9954 C.3     1  UNL1        0.0688
     12 N         140.8354  142.2575  167.5031 N.3     1  UNL1       -0.2951
     13 H         140.5968  142.4127  166.5236 H       1  UNL1        0.1235
     14 C         142.3264  142.1059  167.5667 C.3     1  UNL1        0.0768
     15 C         143.1096  141.8605  166.3112 C.ar    1  UNL1       -0.0079
     16 C         144.0141  142.9281  165.7707 C.ar    1  UNL1       -0.0007
     17 C         144.7973  142.6827  164.5152 C.ar    1  UNL1        0.0294
     18 C         144.6760  141.3698  163.8001 C.ar    1  UNL1        0.1401
     19 F         145.4592  141.1244  162.5445 F       1  UNL1       -0.2042
     20 C         143.7714  140.3021  164.3405 C.ar    1  UNL1        0.0294
     21 C         142.9882  140.5475  165.5960 C.ar    1  UNL1       -0.0007
     22 C         142.4409  143.0110  169.9994 C.3     1  UNL1        0.0018
     23 C         143.0342  142.1997  168.8859 C.3     1  UNL1        0.0202
     24 O         138.6604  139.9720  163.4593 O.3     1  UNL1       -0.4699
     25 C         139.3024  141.3221  163.5830 C.ar    1  UNL1        0.1386
     26 C         140.5189  141.6515  162.7697 C.ar    1  UNL1        0.0349
     27 C         141.1607  143.0015  162.8934 C.ar    1  UNL1        0.0083
     28 C         142.3773  143.3310  162.0800 C.3     1  UNL1        0.0335
     29 C         140.5861  144.0222  163.8304 C.ar    1  UNL1        0.1323
     30 F         141.2280  145.3723  163.9541 F       1  UNL1       -0.2048
     31 C         139.3696  143.6928  164.6438 C.ar    1  UNL1        0.0083
     32 C         138.7949  144.7134  165.5808 C.3     1  UNL1        0.0335
     33 C         138.7277  142.3427  164.5200 C.ar    1  UNL1        0.0349
@<TRIPOS>BOND
     1    22    23    1
     2    23    14    1
     3    14    12    1
     4    12    11    1
     5    11    10    1
     6    10     9    1
     7     9     8    1
     8     1     8    1
     9     1    24    1
    10    24    25    1
    11    25    26   ar
    12    26    27   ar
    13    27    28    1
    14    27    29   ar
    15    29    30    1
    16    29    31   ar
    17    31    32    1
    18    31    33   ar
    19     1     2    1
    20     2     3    2
    21     2     4   am
    22     4     5    1
    23    14    15    1
    24    15    16   ar
    25    16    17   ar
    26    17    18   ar
    27    18    19    1
    28    18    20   ar
    29    20    21   ar
    30    33    25   ar
    31    21    15   ar
    32    12    13    1
    33     4     6    1
    34     5     7    1
@<TRIPOS>MOLECULE
*****
 33 34 0 0 0
SMALL
GASTEIGER

@<TRIPOS>ATOM
      1 C         142.6257  142.2306  167.5143 C.3     1  UNL1        0.2430
      2 C         143.1251  141.8878  168.8865 C.2     1  UNL1        0.2845
      3 O         143.6760  142.9637  169.7747 O.2     1  UNL1       -0.2691
      4 N         143.0737  140.4689  169.3706 N.am    1  UNL1       -0.1940
      5 O         143.5731  140.1261  170.7428 O.3     1  UNL1       -0.2951
      6 H         142.7121  139.7627  168.7877 H       1  UNL1        0.1823
      7 H         143.8928  140.9303  171.1808 H       1  UNL1        0.2414
      8 C         143.4951  141.9854  166.3168 C.3     1  UNL1        0.0533
      9 C         143.6255  143.0383  165.2564 C.3     1  UNL1        0.0057
     10 C         144.5235  142.8079  164.0773 C.3     1  UNL1        0.0172
     11 C         145.4443  141.6239  164.0557 C.3     1  UNL1        0.0688
     12 N         145.0497  140.3802  163.3159 N.3     1  UNL1       -0.2951
     13 H         144.7107  140.6770  162.4008 H       1  UNL1        0.1235
     14 C         144.0072  139.4661  163.8883 C.3     1  UNL1        0.0768
     15 C         142.6827  139.3153  163.2005 C.ar    1  UNL1       -0.0079
     16 C         142.1071  137.9490  162.9729 C.ar    1  UNL1       -0.0007
     17 C         140.7826  137.7982  162.2852 C.ar    1  UNL1        0.0294
     18 C         140.0337  139.0137  161.8251 C.ar    1  UNL1        0.1401
     19 F         138.7092  138.8629  161.1374 F       1  UNL1       -0.2042
     20 C         140.6093  140.3801  162.0527 C.ar    1  UNL1        0.0294
     21 C         141.9338  140.5309  162.7404 C.ar    1  UNL1       -0.0007
     22 C         143.1935  138.4713  166.1462 C.3     1  UNL1        0.0018
     23 C         144.2892  138.7027  165.1484 C.3     1  UNL1        0.0202
     24 O         141.2569  142.8187  167.3396 O.3     1  UNL1       -0.4699
     25 C         140.2780  142.1750  166.4028 C.ar    1  UNL1        0.1386
     26 C         140.1011  140.6855  166.4100 C.ar    1  UNL1        0.0349
     27 C         139.1223  140.0420  165.4732 C.ar    1  UNL1        0.0083
     28 C         138.9454  138.5524  165.4805 C.3     1  UNL1        0.0335
     29 C         138.3204  140.8879  164.5291 C.ar    1  UNL1        0.1323
     30 F         137.3415  140.2442  163.5922 F       1  UNL1       -0.2048
     31 C         138.4973  142.3774  164.5218 C.ar    1  UNL1        0.0083
     32 C         137.6953  143.2233  163.5777 C.3     1  UNL1        0.0335
     33 C         139.4761  143.0209  165.4586 C.ar    1  UNL1        0.0349
@<TRIPOS>BOND
     1    22    23    1
     2    23    14    1
     3    14    12    1
     4    12    11    1
     5    11    10    1
     6    10     9    1
     7     9     8    1
     8     1     8    1
     9     1    24    1
    10    24    25    1
    11    25    26   ar
    12    26    27   ar
    13    27    28    1
    14    27    29   ar
    15    29    30    1
    16    29    31   ar
    17    31    32    1
    18    31    33   ar
    19     1     2    1
    20     2     3    2
    21     2     4   am
    22     4     5    1
    23    14    15    1
    24    15    16   ar
    25    16    17   ar
    26    17    18   ar
    27    18    19    1
    28    18    20   ar
    29    20    21   ar
    30    33    25   ar
    31    21    15   ar
    32    12    13    1
    33     4     6    1
    34     5     7    1
@<TRIPOS>MOLECULE
*****
 33 34 0 0 0
SMALL
GASTEIGER

@<TRIPOS>ATOM
      1 C         141.2700  139.8669  168.0493 C.3     1  UNL1        0.2430
      2 C         141.5713  140.0359  169.5089 C.2     1  UNL1        0.2845
      3 O         142.9730  139.8550  170.0112 O.2     1  UNL1       -0.2691
      4 N         140.4708  140.3858  170.4663 N.am    1  UNL1       -0.1940
      5 O         140.7721  140.5548  171.9260 O.3     1  UNL1       -0.2951
      6 H         139.5507  140.5045  170.1366 H       1  UNL1        0.1823
      7 H         141.7178  140.4044  172.0804 H       1  UNL1        0.2414
      8 C         139.9590  140.3400  167.4944 C.3     1  UNL1        0.0533
      9 C         138.7654  139.4319  167.5127 C.3     1  UNL1        0.0057
     10 C         138.1787  138.9383  166.2235 C.3     1  UNL1        0.0172
     11 C         138.9982  138.0790  165.3069 C.3     1  UNL1        0.0688
     12 N         139.8908  138.7141  164.2823 N.3     1  UNL1       -0.2951
     13 H         140.6757  139.1237  164.7889 H       1  UNL1        0.1235
     14 C         139.3529  139.7838  163.3788 C.3     1  UNL1        0.0768
     15 C         139.2249  141.1925  163.8779 C.ar    1  UNL1       -0.0079
     16 C         137.8697  141.8225  164.0061 C.ar    1  UNL1       -0.0007
     17 C         137.7416  143.2312  164.5051 C.ar    1  UNL1        0.0294
     18 C         138.9688  144.0100  164.8759 C.ar    1  UNL1        0.1401
     19 F         138.8407  145.4188  165.3749 F       1  UNL1       -0.2042
     20 C         140.3241  143.3801  164.7477 C.ar    1  UNL1        0.0294
     21 C         140.4521  141.9713  164.2486 C.ar    1  UNL1       -0.0007
     22 C         137.7239  138.6054  161.7333 C.3     1  UNL1        0.0018
     23 C         138.9431  139.4448  161.9763 C.3     1  UNL1        0.0202
     24 O         142.2795  139.2249  167.1445 O.3     1  UNL1       -0.4699
     25 C         142.9483  140.0342  166.0731 C.ar    1  UNL1        0.1386
     26 C         143.2266  139.4203  164.7331 C.ar    1  UNL1        0.0349
     27 C         143.8954  140.2296  163.6617 C.ar    1  UNL1        0.0083
     28 C         144.1737  139.6157  162.3216 C.3     1  UNL1        0.0335
     29 C         144.2859  141.6527  163.9304 C.ar    1  UNL1        0.1323
     30 F         144.9547  142.4620  162.8590 F       1  UNL1       -0.2048
     31 C         144.0076  142.2666  165.2705 C.ar    1  UNL1        0.0083
     32 C         144.3981  143.6897  165.5392 C.3     1  UNL1        0.0335
     33 C         143.3388  141.4573  166.3418 C.ar    1  UNL1        0.0349
@<TRIPOS>BOND
     1    22    23    1
     2    23    14    1
     3    14    12    1
     4    12    11    1
     5    11    10    1
     6    10     9    1
     7     9     8    1
     8     1     8    1
     9     1    24    1
    10    24    25    1
    11    25    26   ar
    12    26    27   ar
    13    27    28    1
    14    27    29   ar
    15    29    30    1
    16    29    31   ar
    17    31    32    1
    18    31    33   ar
    19     1     2    1
    20     2     3    2
    21     2     4   am
    22     4     5    1
    23    14    15    1
    24    15    16   ar
    25    16    17   ar
    26    17    18   ar
    27    18    19    1
    28    18    20   ar
    29    20    21   ar
    30    33    25   ar
    31    21    15   ar
    32    12    13    1
    33     4     6    1
    34     5     7    1
