@<TRIPOS>MOLECULE
*****
 21 23 0 0 0
SMALL
GASTEIGER

@<TRIPOS>ATOM
      1 C         141.6792  144.6302  163.4629 C.3     1  UNL1        0.0591
      2 C         143.1162  144.2721  163.2249 C.3     1  UNL1        0.0418
      3 C         143.6299  142.9222  163.6300 C.ar    1  UNL1       -0.0245
      4 C         145.0669  142.5641  163.3920 C.ar    1  UNL1       -0.0045
      5 C         145.5804  141.2143  163.7970 C.ar    1  UNL1       -0.0003
      6 C         144.6569  140.2225  164.4401 C.ar    1  UNL1       -0.0003
      7 C         143.2199  140.5805  164.6781 C.ar    1  UNL1       -0.0043
      8 C         142.7064  141.9304  164.2730 C.ar    1  UNL1       -0.0223
      9 C         141.2693  142.2885  164.5110 C.3     1  UNL1        0.0456
     10 C         140.7557  143.6384  164.1060 C.3     1  UNL1        0.0248
     11 C         140.3458  141.2967  165.1541 C.ar    1  UNL1       -0.0175
     12 C         139.4677  140.4281  164.3028 C.ar    1  UNL1       -0.0030
     13 C         138.5442  139.4363  164.9458 C.ar    1  UNL1        0.0119
     14 C         138.4988  139.3131  166.4401 C.ar    1  UNL1        0.0682
     15 CL        137.5753  138.3213  167.0832 Cl      1  UNL1       -0.0814
     16 C         139.3769  140.1817  167.2913 C.ar    1  UNL1        0.0679
     17 CL        139.3315  140.0585  168.7856 Cl      1  UNL1       -0.0814
     18 C         140.3004  141.1735  166.6483 C.ar    1  UNL1        0.0083
     19 C         140.0506  146.0900  162.0606 C.3     1  UNL1        0.0859
     20 N         141.1656  145.9801  163.0579 N.3     1  UNL1       -0.2971
     21 H         140.8453  146.4410  163.9096 H       1  UNL1        0.1233
@<TRIPOS>BOND
     1    19    20    1
     2     1    20    1
     3     1     2    1
     4     2     3    1
     5     3     4   ar
     6     4     5   ar
     7     5     6   ar
     8     6     7   ar
     9     7     8   ar
    10     8     9    1
    11     9    11    1
    12    11    12   ar
    13    12    13   ar
    14    13    14   ar
    15    14    15    1
    16    14    16   ar
    17    16    17    1
    18    16    18   ar
    19     9    10    1
    20    10     1    1
    21     8     3   ar
    22    18    11   ar
    23    20    21    1
@<TRIPOS>MOLECULE
*****
 21 23 0 0 0
SMALL
GASTEIGER

@<TRIPOS>ATOM
      1 C         143.8401  142.9470  164.5924 C.3     1  UNL1        0.0591
      2 C         143.1270  143.8560  163.6359 C.3     1  UNL1        0.0418
      3 C         141.6623  144.1286  163.8106 C.ar    1  UNL1       -0.0245
      4 C         140.9493  145.0376  162.8541 C.ar    1  UNL1       -0.0045
      5 C         139.4846  145.3101  163.0289 C.ar    1  UNL1       -0.0003
      6 C         138.7331  144.6735  164.1602 C.ar    1  UNL1       -0.0003
      7 C         139.4462  143.7644  165.1167 C.ar    1  UNL1       -0.0043
      8 C         140.9108  143.4920  164.9420 C.ar    1  UNL1       -0.0223
      9 C         141.6240  142.5828  165.8985 C.3     1  UNL1        0.0456
     10 C         143.0886  142.3104  165.7238 C.3     1  UNL1        0.0248
     11 C         140.8724  141.9462  167.0299 C.ar    1  UNL1       -0.0175
     12 C         140.2530  140.5918  166.8507 C.ar    1  UNL1       -0.0030
     13 C         139.5014  139.9552  167.9820 C.ar    1  UNL1        0.0119
     14 C         139.3693  140.6730  169.2925 C.ar    1  UNL1        0.0682
     15 CL        138.6178  140.0364  170.4239 Cl      1  UNL1       -0.0814
     16 C         139.9888  142.0273  169.4717 C.ar    1  UNL1        0.0679
     17 CL        139.8567  142.7451  170.7822 Cl      1  UNL1       -0.0814
     18 C         140.7403  142.6639  168.3404 C.ar    1  UNL1        0.0083
     19 C         145.7568  141.4689  163.6480 C.3     1  UNL1        0.0859
     20 N         145.3048  142.6745  164.4177 N.3     1  UNL1       -0.2971
     21 H         145.7020  143.4888  163.9492 H       1  UNL1        0.1233
@<TRIPOS>BOND
     1    19    20    1
     2     1    20    1
     3     1     2    1
     4     2     3    1
     5     3     4   ar
     6     4     5   ar
     7     5     6   ar
     8     6     7   ar
     9     7     8   ar
    10     8     9    1
    11     9    11    1
    12    11    12   ar
    13    12    13   ar
    14    13    14   ar
    15    14    15    1
    16    14    16   ar
    17    16    17    1
    18    16    18   ar
    19     9    10    1
    20    10     1    1
    21     8     3   ar
    22    18    11   ar
    23    20    21    1
@<TRIPOS>MOLECULE
*****
 21 23 0 0 0
SMALL
GASTEIGER

@<TRIPOS>ATOM
      1 C         139.9428  141.3055  169.2684 C.3     1  UNL1        0.0591
      2 C         139.1531  140.1287  168.7770 C.3     1  UNL1        0.0418
      3 C         139.1819  139.7605  167.3231 C.ar    1  UNL1       -0.0245
      4 C         138.3922  138.5837  166.8317 C.ar    1  UNL1       -0.0045
      5 C         138.4211  138.2155  165.3779 C.ar    1  UNL1       -0.0003
      6 C         139.2397  139.0240  164.4156 C.ar    1  UNL1       -0.0003
      7 C         140.0295  140.2007  164.9070 C.ar    1  UNL1       -0.0043
      8 C         140.0006  140.5690  166.3608 C.ar    1  UNL1       -0.0223
      9 C         140.7904  141.7457  166.8523 C.3     1  UNL1        0.0456
     10 C         140.7615  142.1140  168.3060 C.3     1  UNL1        0.0248
     11 C         141.6090  142.5543  165.8899 C.ar    1  UNL1       -0.0175
     12 C         143.0929  142.3491  165.8108 C.ar    1  UNL1       -0.0030
     13 C         143.9115  143.1576  164.8485 C.ar    1  UNL1        0.0119
     14 C         143.2463  144.1713  163.9652 C.ar    1  UNL1        0.0682
     15 CL        144.0649  144.9798  163.0028 Cl      1  UNL1       -0.0814
     16 C         141.7625  144.3763  164.0443 C.ar    1  UNL1        0.0679
     17 CL        141.0973  145.3900  163.1610 Cl      1  UNL1       -0.0814
     18 C         140.9439  143.5678  165.0066 C.ar    1  UNL1        0.0083
     19 C         141.1855  141.6874  171.5178 C.3     1  UNL1        0.0859
     20 N         139.9140  141.6737  170.7223 N.3     1  UNL1       -0.2971
     21 H         139.5202  142.6129  170.7804 H       1  UNL1        0.1233
@<TRIPOS>BOND
     1    19    20    1
     2     1    20    1
     3     1     2    1
     4     2     3    1
     5     3     4   ar
     6     4     5   ar
     7     5     6   ar
     8     6     7   ar
     9     7     8   ar
    10     8     9    1
    11     9    11    1
    12    11    12   ar
    13    12    13   ar
    14    13    14   ar
    15    14    15    1
    16    14    16   ar
    17    16    17    1
    18    16    18   ar
    19     9    10    1
    20    10     1    1
    21     8     3   ar
    22    18    11   ar
    23    20    21    1
@<TRIPOS>MOLECULE
*****
 21 23 0 0 0
SMALL
GASTEIGER

@<TRIPOS>ATOM
      1 C         139.2370  139.2966  166.3568 C.3     1  UNL1        0.0591
      2 C         138.9663  139.5324  167.8131 C.3     1  UNL1        0.0418
      3 C         139.5482  140.7325  168.4995 C.ar    1  UNL1       -0.0245
      4 C         139.2775  140.9683  169.9559 C.ar    1  UNL1       -0.0045
      5 C         139.8594  142.1684  170.6422 C.ar    1  UNL1       -0.0003
      6 C         140.7121  143.1328  169.8721 C.ar    1  UNL1       -0.0003
      7 C         140.9828  142.8970  168.4157 C.ar    1  UNL1       -0.0043
      8 C         140.4009  141.6969  167.7294 C.ar    1  UNL1       -0.0223
      9 C         140.6716  141.4610  166.2730 C.3     1  UNL1        0.0456
     10 C         140.0897  140.2609  165.5867 C.3     1  UNL1        0.0248
     11 C         141.5243  142.4254  165.5029 C.ar    1  UNL1       -0.0175
     12 C         143.0193  142.3218  165.5677 C.ar    1  UNL1       -0.0030
     13 C         143.8720  143.2861  164.7976 C.ar    1  UNL1        0.0119
     14 C         143.2296  144.3540  163.9628 C.ar    1  UNL1        0.0682
     15 CL        144.0823  145.3184  163.1927 Cl      1  UNL1       -0.0814
     16 C         141.7346  144.4576  163.8980 C.ar    1  UNL1        0.0679
     17 CL        141.0922  145.5256  163.0632 Cl      1  UNL1       -0.0814
     18 C         140.8819  143.4933  164.6681 C.ar    1  UNL1        0.0083
     19 C         138.9983  137.8116  164.2383 C.3     1  UNL1        0.0859
     20 N         138.6550  138.0964  165.6704 N.3     1  UNL1       -0.2971
     21 H         138.9429  137.2802  166.2101 H       1  UNL1        0.1233
@<TRIPOS>BOND
     1    19    20    1
     2     1    20    1
     3     1     2    1
     4     2     3    1
     5     3     4   ar
     6     4     5   ar
     7     5     6   ar
     8     6     7   ar
     9     7     8   ar
    10     8     9    1
    11     9    11    1
    12    11    12   ar
    13    12    13   ar
    14    13    14   ar
    15    14    15    1
    16    14    16   ar
    17    16    17    1
    18    16    18   ar
    19     9    10    1
    20    10     1    1
    21     8     3   ar
    22    18    11   ar
    23    20    21    1
@<TRIPOS>MOLECULE
*****
 21 23 0 0 0
SMALL
GASTEIGER

@<TRIPOS>ATOM
      1 C         140.4896  141.9517  168.7388 C.3     1  UNL1        0.0591
      2 C         139.9205  140.5726  168.5835 C.3     1  UNL1        0.0418
      3 C         139.3960  140.1231  167.2520 C.ar    1  UNL1       -0.0245
      4 C         138.8268  138.7441  167.0968 C.ar    1  UNL1       -0.0045
      5 C         138.3023  138.2947  165.7653 C.ar    1  UNL1       -0.0003
      6 C         138.3469  139.2244  164.5890 C.ar    1  UNL1       -0.0003
      7 C         138.9161  140.6035  164.7442 C.ar    1  UNL1       -0.0043
      8 C         139.4406  141.0529  166.0757 C.ar    1  UNL1       -0.0223
      9 C         140.0098  142.4320  166.2310 C.3     1  UNL1        0.0456
     10 C         140.5343  142.8814  167.5625 C.3     1  UNL1        0.0248
     11 C         140.0544  143.3618  165.0547 C.ar    1  UNL1       -0.0175
     12 C         138.8229  144.1148  164.6468 C.ar    1  UNL1       -0.0030
     13 C         138.8675  145.0445  163.4705 C.ar    1  UNL1        0.0119
     14 C         140.1437  145.2212  162.7022 C.ar    1  UNL1        0.0682
     15 CL        140.1883  146.1509  161.5259 Cl      1  UNL1       -0.0814
     16 C         141.3751  144.4682  163.1101 C.ar    1  UNL1        0.0679
     17 CL        142.6513  144.6449  162.3418 Cl      1  UNL1       -0.0814
     18 C         141.3305  143.5385  164.2864 C.ar    1  UNL1        0.0083
     19 C         142.3779  143.0178  170.1698 C.3     1  UNL1        0.0859
     20 N         141.0142  142.4011  170.0703 N.3     1  UNL1       -0.2971
     21 H         140.3529  143.0892  170.4303 H       1  UNL1        0.1233
@<TRIPOS>BOND
     1    19    20    1
     2     1    20    1
     3     1     2    1
     4     2     3    1
     5     3     4   ar
     6     4     5   ar
     7     5     6   ar
     8     6     7   ar
     9     7     8   ar
    10     8     9    1
    11     9    11    1
    12    11    12   ar
    13    12    13   ar
    14    13    14   ar
    15    14    15    1
    16    14    16   ar
    17    16    17    1
    18    16    18   ar
    19     9    10    1
    20    10     1    1
    21     8     3   ar
    22    18    11   ar
    23    20    21    1
@<TRIPOS>MOLECULE
*****
 21 23 0 0 0
SMALL
GASTEIGER

@<TRIPOS>ATOM
      1 C         141.3005  141.7256  168.9227 C.3     1  UNL1        0.0591
      2 C         142.0412  140.4568  168.6202 C.3     1  UNL1        0.0418
      3 C         142.3886  140.1109  167.2025 C.ar    1  UNL1       -0.0245
      4 C         143.1294  138.8422  166.9000 C.ar    1  UNL1       -0.0045
      5 C         143.4767  138.4963  165.4824 C.ar    1  UNL1       -0.0003
      6 C         143.0833  139.4193  164.3673 C.ar    1  UNL1       -0.0003
      7 C         142.3426  140.6880  164.6698 C.ar    1  UNL1       -0.0043
      8 C         141.9953  141.0338  166.0874 C.ar    1  UNL1       -0.0223
      9 C         141.2545  142.3026  166.3900 C.3     1  UNL1        0.0456
     10 C         140.9071  142.6485  167.8076 C.3     1  UNL1        0.0248
     11 C         140.8611  143.2256  165.2749 C.ar    1  UNL1       -0.0175
     12 C         141.9007  144.0671  164.5957 C.ar    1  UNL1       -0.0030
     13 C         141.5074  144.9900  163.4806 C.ar    1  UNL1        0.0119
     14 C         140.0744  145.0714  163.0447 C.ar    1  UNL1        0.0682
     15 CL        139.6810  145.9943  161.9295 Cl      1  UNL1       -0.0814
     16 C         139.0349  144.2299  163.7238 C.ar    1  UNL1        0.0679
     17 CL        137.6019  144.3114  163.2878 Cl      1  UNL1       -0.0814
     18 C         139.4282  143.3070  164.8389 C.ar    1  UNL1        0.0083
     19 C         139.7570  142.9283  170.6318 C.3     1  UNL1        0.0859
     20 N         140.9531  142.0714  170.3404 N.3     1  UNL1       -0.2971
     21 H         140.8102  141.1893  170.8322 H       1  UNL1        0.1233
@<TRIPOS>BOND
     1    19    20    1
     2     1    20    1
     3     1     2    1
     4     2     3    1
     5     3     4   ar
     6     4     5   ar
     7     5     6   ar
     8     6     7   ar
     9     7     8   ar
    10     8     9    1
    11     9    11    1
    12    11    12   ar
    13    12    13   ar
    14    13    14   ar
    15    14    15    1
    16    14    16   ar
    17    16    17    1
    18    16    18   ar
    19     9    10    1
    20    10     1    1
    21     8     3   ar
    22    18    11   ar
    23    20    21    1
@<TRIPOS>MOLECULE
*****
 21 23 0 0 0
SMALL
GASTEIGER

@<TRIPOS>ATOM
      1 C         141.2438  141.9674  169.4456 C.3     1  UNL1        0.0591
      2 C         140.1109  140.9909  169.3329 C.3     1  UNL1        0.0418
      3 C         139.7229  140.4437  167.9911 C.ar    1  UNL1       -0.0245
      4 C         138.5900  139.4672  167.8784 C.ar    1  UNL1       -0.0045
      5 C         138.2021  138.9201  166.5367 C.ar    1  UNL1       -0.0003
      6 C         138.9471  139.3497  165.3077 C.ar    1  UNL1       -0.0003
      7 C         140.0800  140.3262  165.4204 C.ar    1  UNL1       -0.0043
      8 C         140.4680  140.8733  166.7621 C.ar    1  UNL1       -0.0223
      9 C         141.6009  141.8499  166.8749 C.3     1  UNL1        0.0456
     10 C         141.9889  142.3969  168.2166 C.3     1  UNL1        0.0248
     11 C         142.3460  142.2794  165.6459 C.ar    1  UNL1       -0.0175
     12 C         141.7511  143.3068  164.7289 C.ar    1  UNL1       -0.0030
     13 C         142.4961  143.7363  163.4999 C.ar    1  UNL1        0.0119
     14 C         143.8360  143.1384  163.1879 C.ar    1  UNL1        0.0682
     15 CL        144.5810  143.5679  161.9588 Cl      1  UNL1       -0.0814
     16 C         144.4308  142.1111  164.1048 C.ar    1  UNL1        0.0679
     17 CL        145.7707  141.5132  163.7927 Cl      1  UNL1       -0.0814
     18 C         143.6858  141.6816  165.3338 C.ar    1  UNL1        0.0083
     19 C         142.8909  143.3163  170.9348 C.3     1  UNL1        0.0859
     20 N         141.6318  142.5145  170.7874 N.3     1  UNL1       -0.2971
     21 H         140.8645  143.1121  171.0948 H       1  UNL1        0.1233
@<TRIPOS>BOND
     1    19    20    1
     2     1    20    1
     3     1     2    1
     4     2     3    1
     5     3     4   ar
     6     4     5   ar
     7     5     6   ar
     8     6     7   ar
     9     7     8   ar
    10     8     9    1
    11     9    11    1
    12    11    12   ar
    13    12    13   ar
    14    13    14   ar
    15    14    15    1
    16    14    16   ar
    17    16    17    1
    18    16    18   ar
    19     9    10    1
    20    10     1    1
    21     8     3   ar
    22    18    11   ar
    23    20    21    1
@<TRIPOS>MOLECULE
*****
 21 23 0 0 0
SMALL
GASTEIGER

@<TRIPOS>ATOM
      1 C         140.1353  141.1444  169.3236 C.3     1  UNL1        0.0591
      2 C         139.0341  140.2095  168.9198 C.3     1  UNL1        0.0418
      3 C         139.0745  139.5375  167.5793 C.ar    1  UNL1       -0.0245
      4 C         137.9732  138.6026  167.1755 C.ar    1  UNL1       -0.0045
      5 C         138.0137  137.9306  165.8351 C.ar    1  UNL1       -0.0003
      6 C         139.1555  138.1935  164.8985 C.ar    1  UNL1       -0.0003
      7 C         140.2567  139.1284  165.3023 C.ar    1  UNL1       -0.0043
      8 C         140.2163  139.8004  166.6427 C.ar    1  UNL1       -0.0223
      9 C         141.3176  140.7354  167.0466 C.3     1  UNL1        0.0456
     10 C         141.2771  141.4073  168.3870 C.3     1  UNL1        0.0248
     11 C         142.4593  140.9983  166.1099 C.ar    1  UNL1       -0.0175
     12 C         143.3256  139.8647  165.6465 C.ar    1  UNL1       -0.0030
     13 C         144.4673  140.1276  164.7099 C.ar    1  UNL1        0.0119
     14 C         144.7428  141.5242  164.2367 C.ar    1  UNL1        0.0682
     15 CL        145.8846  141.7871  163.3001 Cl      1  UNL1       -0.0814
     16 C         143.8766  142.6577  164.7001 C.ar    1  UNL1        0.0679
     17 CL        144.1521  144.0542  164.2269 Cl      1  UNL1       -0.0814
     18 C         142.7349  142.3947  165.6367 C.ar    1  UNL1        0.0083
     19 C         141.3090  141.8068  171.5448 C.3     1  UNL1        0.0859
     20 N         140.0949  141.8165  170.6641 N.3     1  UNL1       -0.2971
     21 H         139.8609  142.7949  170.4960 H       1  UNL1        0.1233
@<TRIPOS>BOND
     1    19    20    1
     2     1    20    1
     3     1     2    1
     4     2     3    1
     5     3     4   ar
     6     4     5   ar
     7     5     6   ar
     8     6     7   ar
     9     7     8   ar
    10     8     9    1
    11     9    11    1
    12    11    12   ar
    13    12    13   ar
    14    13    14   ar
    15    14    15    1
    16    14    16   ar
    17    16    17    1
    18    16    18   ar
    19     9    10    1
    20    10     1    1
    21     8     3   ar
    22    18    11   ar
    23    20    21    1
@<TRIPOS>MOLECULE
*****
 21 23 0 0 0
SMALL
GASTEIGER

@<TRIPOS>ATOM
      1 C         138.4570  142.9809  164.0542 C.3     1  UNL1        0.0591
      2 C         138.1949  141.7951  163.1738 C.3     1  UNL1        0.0418
      3 C         138.5974  140.4223  163.6251 C.ar    1  UNL1       -0.0245
      4 C         138.3353  139.2366  162.7447 C.ar    1  UNL1       -0.0045
      5 C         138.7379  137.8639  163.1959 C.ar    1  UNL1       -0.0003
      6 C         139.4026  137.6770  164.5276 C.ar    1  UNL1       -0.0003
      7 C         139.6647  138.8628  165.4080 C.ar    1  UNL1       -0.0043
      8 C         139.2621  140.2355  164.9567 C.ar    1  UNL1       -0.0223
      9 C         139.5242  141.4214  165.8371 C.3     1  UNL1        0.0456
     10 C         139.1216  142.7940  165.3859 C.3     1  UNL1        0.0248
     11 C         140.1889  141.2345  167.1688 C.ar    1  UNL1       -0.0175
     12 C         139.5335  140.3915  168.2224 C.ar    1  UNL1       -0.0030
     13 C         140.1982  140.2046  169.5540 C.ar    1  UNL1        0.0119
     14 C         141.5182  140.8607  169.8321 C.ar    1  UNL1        0.0682
     15 CL        142.1829  140.6739  171.1637 Cl      1  UNL1       -0.0814
     16 C         142.1734  141.7037  168.7785 C.ar    1  UNL1        0.0679
     17 CL        143.4934  142.3598  169.0565 Cl      1  UNL1       -0.0814
     18 C         141.5088  141.8905  167.4469 C.ar    1  UNL1        0.0083
     19 C         138.8814  145.0810  162.5847 C.3     1  UNL1        0.0859
     20 N         138.0544  144.3537  163.6030 N.3     1  UNL1       -0.2971
     21 H         137.1145  144.2723  163.2153 H       1  UNL1        0.1233
@<TRIPOS>BOND
     1    19    20    1
     2     1    20    1
     3     1     2    1
     4     2     3    1
     5     3     4   ar
     6     4     5   ar
     7     5     6   ar
     8     6     7   ar
     9     7     8   ar
    10     8     9    1
    11     9    11    1
    12    11    12   ar
    13    12    13   ar
    14    13    14   ar
    15    14    15    1
    16    14    16   ar
    17    16    17    1
    18    16    18   ar
    19     9    10    1
    20    10     1    1
    21     8     3   ar
    22    18    11   ar
    23    20    21    1
