@<TRIPOS>MOLECULE
*****
 45 49 0 0 0
SMALL
GASTEIGER

@<TRIPOS>ATOM
      1 N         143.9646  140.6025  164.9572 N.pl3   1  UNL1       -0.2801
      2 H         144.8239  140.8043  165.3933 H       1  UNL1        0.1552
      3 C         144.2323  141.6464  162.5932 C.ar    1  UNL1        0.1517
      4 C         144.1609  141.5174  161.1005 C.ar    1  UNL1        0.0339
      5 C         143.7503  140.2154  160.4790 C.ar    1  UNL1       -0.0187
      6 C         143.4111  139.0424  161.3502 C.ar    1  UNL1       -0.0240
      7 C         143.4826  139.1715  162.8429 C.ar    1  UNL1        0.0132
      8 C         143.8932  140.4735  163.4644 C.ar    1  UNL1        0.0846
      9 C         143.0006  137.7404  160.7288 C.3     1  UNL1        0.0321
     10 C         142.9291  137.6114  159.2361 C.3     1  UNL1        0.0478
     11 C         143.2683  138.7844  158.3647 C.2     1  UNL1        0.0572
     12 N         143.1968  138.6554  156.8720 N.2     1  UNL1       -0.1905
     13 C         143.6789  140.0864  158.9862 C.3     1  UNL1        0.0517
     14 C         144.1175  141.5160  159.1034 C.3     1  UNL1        0.0100
     15 C         143.7598  140.4539  157.5342 C.3     1  UNL1        0.0100
     16 N         142.7862  137.3534  156.2506 N.pl3   1  UNL1       -0.2305
     17 C         141.3373  137.0752  155.9804 C.3     1  UNL1        0.1282
     18 C         140.9267  135.7732  155.3590 C.3     1  UNL1        0.0956
     19 N         141.9651  134.7494  155.0076 N.3     1  UNL1       -0.2685
     20 C         141.5545  133.4474  154.3862 C.3     1  UNL1        0.0897
     21 C         143.4141  135.0275  155.2778 C.3     1  UNL1        0.0956
     22 C         143.8247  136.3295  155.8992 C.3     1  UNL1        0.1282
     23 C         144.0372  144.2334  162.7330 C.3     1  UNL1        0.2525
     24 O         144.6429  142.9484  163.2146 O.3     1  UNL1       -0.4702
     25 C         142.7268  140.4240  165.7855 C.ar    1  UNL1        0.2220
     26 N         142.8418  140.1124  167.2483 N.ar    1  UNL1       -0.2110
     27 C         141.6040  139.9339  168.0766 C.ar    1  UNL1        0.1160
     28 C         140.2513  140.0670  167.4420 C.ar    1  UNL1        0.1085
     29 CL        139.0135  139.8885  168.2703 Cl      1  UNL1       -0.0777
     30 C         140.1364  140.3785  165.9793 C.ar    1  UNL1        0.1472
     31 N         141.3742  140.5570  165.1510 N.ar    1  UNL1       -0.1976
     32 N         138.7837  140.5116  165.3447 N.pl3   1  UNL1       -0.2961
     33 H         138.0747  139.8622  165.5563 H       1  UNL1        0.1537
     34 C         138.5114  141.6341  164.3878 C.ar    1  UNL1        0.0667
     35 C         138.1057  142.9813  164.9079 C.ar    1  UNL1        0.0159
     36 C         137.8333  144.1038  163.9510 C.ar    1  UNL1        0.0014
     37 C         137.9666  143.8791  162.4738 C.ar    1  UNL1        0.0014
     38 C         138.3723  142.5320  161.9537 C.ar    1  UNL1        0.0196
     39 C         138.6447  141.4094  162.9107 C.ar    1  UNL1        0.1189
     40 S         139.0504  140.0622  162.3906 S.O2    1  UNL1        0.0082
     41 O         137.7721  139.4759  162.9124 O.2     1  UNL1       -0.1686
     42 O         140.3286  140.6486  161.8689 O.2     1  UNL1       -0.1686
     43 C         139.4561  138.7151  161.8705 C.3     1  UNL1        0.1340
     44 C         139.4277  138.4407  160.3960 C.3     1  UNL1        0.0257
     45 C         139.8901  137.6423  162.8248 C.3     1  UNL1        0.0257
@<TRIPOS>BOND
     1    23    24    1
     2    24     3    1
     3     3     4   ar
     4     4     5   ar
     5     5     6   ar
     6     6     7   ar
     7     7     8   ar
     8     8     1    1
     9     1    25    1
    10    25    26   ar
    11    26    27   ar
    12    27    28   ar
    13    28    29    1
    14    28    30   ar
    15    30    32    1
    16    32    34    1
    17    34    35   ar
    18    35    36   ar
    19    36    37   ar
    20    37    38   ar
    21    38    39   ar
    22    39    40    1
    23    40    41    2
    24    40    42    2
    25    40    43    1
    26    43    44    1
    27    43    45    1
    28    30    31   ar
    29     6     9    1
    30     9    10    1
    31    10    11    1
    32    11    12    2
    33    12    16    1
    34    16    17    1
    35    17    18    1
    36    18    19    1
    37    19    20    1
    38    19    21    1
    39    21    22    1
    40    11    13    1
    41    13    14    1
    42    13    15    1
    43     8     3   ar
    44    31    25   ar
    45    22    16    1
    46    13     5    1
    47    39    34   ar
    48     1     2    1
    49    32    33    1
@<TRIPOS>MOLECULE
*****
 45 49 0 0 0
SMALL
GASTEIGER

@<TRIPOS>ATOM
      1 N         139.5293  143.6352  160.0000 N.pl3   1  UNL1       -0.2801
      2 H         138.9483  144.2440  159.4891 H       1  UNL1        0.1552
      3 C         141.7540  143.1307  158.7565 C.ar    1  UNL1        0.1517
      4 C         142.6496  142.1674  158.0354 C.ar    1  UNL1        0.0339
      5 C         142.2159  140.7453  157.8365 C.ar    1  UNL1       -0.0187
      6 C         140.8868  140.2865  158.3588 C.ar    1  UNL1       -0.0240
      7 C         139.9913  141.2498  159.0800 C.ar    1  UNL1        0.0132
      8 C         140.4249  142.6719  159.2788 C.ar    1  UNL1        0.0846
      9 C         140.4532  138.8643  158.1600 C.3     1  UNL1        0.0321
     10 C         141.3487  137.9010  157.4389 C.3     1  UNL1        0.0478
     11 C         142.6779  138.3598  156.9165 C.2     1  UNL1        0.0572
     12 N         143.5734  137.3965  156.1954 N.2     1  UNL1       -0.1905
     13 C         143.1115  139.7820  157.1154 C.3     1  UNL1        0.0517
     14 C         143.9583  141.0187  157.0567 C.3     1  UNL1        0.0100
     15 C         144.3011  139.2481  156.3738 C.3     1  UNL1        0.0100
     16 N         143.1398  135.9744  155.9966 N.pl3   1  UNL1       -0.2305
     17 C         142.4568  135.5695  154.7240 C.3     1  UNL1        0.1282
     18 C         142.0232  134.1474  154.5252 C.3     1  UNL1        0.0956
     19 N         142.2725  133.1302  155.5989 N.3     1  UNL1       -0.2685
     20 C         141.8389  131.7080  155.4001 C.3     1  UNL1        0.0897
     21 C         142.9555  133.5350  156.8716 C.3     1  UNL1        0.0956
     22 C         143.3891  134.9572  157.0704 C.3     1  UNL1        0.1282
     23 C         141.8601  145.5884  157.9208 C.3     1  UNL1        0.2525
     24 O         142.1877  144.5528  158.9553 O.3     1  UNL1       -0.4702
     25 C         139.5190  143.6709  161.4995 C.ar    1  UNL1        0.2220
     26 N         138.8445  144.8016  162.2182 N.ar    1  UNL1       -0.2110
     27 C         138.8342  144.8372  163.7178 C.ar    1  UNL1        0.1160
     28 C         139.4984  143.7421  164.4986 C.ar    1  UNL1        0.1085
     29 CL        139.4881  143.7778  165.9981 Cl      1  UNL1       -0.0777
     30 C         140.1729  142.6115  163.7799 C.ar    1  UNL1        0.1472
     31 N         140.1832  142.5758  162.2803 N.ar    1  UNL1       -0.1976
     32 N         140.8372  141.5164  164.5607 N.pl3   1  UNL1       -0.2961
     33 H         141.7518  141.6410  164.9030 H       1  UNL1        0.1537
     34 C         140.1079  140.2315  164.8199 C.ar    1  UNL1        0.0667
     35 C         139.1064  140.1490  165.9336 C.ar    1  UNL1        0.0159
     36 C         138.3772  138.8642  166.1928 C.ar    1  UNL1        0.0014
     37 C         138.6493  137.6617  165.3383 C.ar    1  UNL1        0.0014
     38 C         139.6508  137.7442  164.2246 C.ar    1  UNL1        0.0196
     39 C         140.3801  139.0292  163.9655 C.ar    1  UNL1        0.1189
     40 S         141.3815  139.1116  162.8518 S.O2    1  UNL1        0.0082
     41 O         140.2678  139.0744  161.8476 O.2     1  UNL1       -0.1686
     42 O         142.4952  139.1488  163.8559 O.2     1  UNL1       -0.1686
     43 C         142.3829  139.1941  161.7381 C.3     1  UNL1        0.1340
     44 C         142.7144  137.9710  160.9353 C.3     1  UNL1        0.0257
     45 C         143.0530  140.4996  161.4271 C.3     1  UNL1        0.0257
@<TRIPOS>BOND
     1    23    24    1
     2    24     3    1
     3     3     4   ar
     4     4     5   ar
     5     5     6   ar
     6     6     7   ar
     7     7     8   ar
     8     8     1    1
     9     1    25    1
    10    25    26   ar
    11    26    27   ar
    12    27    28   ar
    13    28    29    1
    14    28    30   ar
    15    30    32    1
    16    32    34    1
    17    34    35   ar
    18    35    36   ar
    19    36    37   ar
    20    37    38   ar
    21    38    39   ar
    22    39    40    1
    23    40    41    2
    24    40    42    2
    25    40    43    1
    26    43    44    1
    27    43    45    1
    28    30    31   ar
    29     6     9    1
    30     9    10    1
    31    10    11    1
    32    11    12    2
    33    12    16    1
    34    16    17    1
    35    17    18    1
    36    18    19    1
    37    19    20    1
    38    19    21    1
    39    21    22    1
    40    11    13    1
    41    13    14    1
    42    13    15    1
    43     8     3   ar
    44    31    25   ar
    45    22    16    1
    46    13     5    1
    47    39    34   ar
    48     1     2    1
    49    32    33    1
@<TRIPOS>MOLECULE
*****
 45 49 0 0 0
SMALL
GASTEIGER

@<TRIPOS>ATOM
      1 N         144.1317  139.6627  165.4978 N.pl3   1  UNL1       -0.2801
      2 H         144.9989  139.4992  165.9343 H       1  UNL1        0.1552
      3 C         144.4670  141.0579  163.3320 C.ar    1  UNL1        0.1517
      4 C         144.3896  141.1776  161.8388 C.ar    1  UNL1        0.0339
      5 C         143.8994  140.0215  161.0182 C.ar    1  UNL1       -0.0187
      6 C         143.4867  138.7459  161.6908 C.ar    1  UNL1       -0.0240
      7 C         143.5641  138.6263  163.1840 C.ar    1  UNL1        0.0132
      8 C         144.0543  139.7823  164.0046 C.ar    1  UNL1        0.0846
      9 C         142.9965  137.5899  160.8702 C.3     1  UNL1        0.0321
     10 C         142.9191  137.7095  159.3770 C.3     1  UNL1        0.0478
     11 C         143.3318  138.9852  158.7043 C.2     1  UNL1        0.0572
     12 N         143.2544  139.1048  157.2111 N.2     1  UNL1       -0.1905
     13 C         143.8220  140.1412  159.5249 C.3     1  UNL1        0.0517
     14 C         144.3488  141.5030  159.8684 C.3     1  UNL1        0.0100
     15 C         143.9275  140.7338  158.1510 C.3     1  UNL1        0.0100
     16 N         142.7643  137.9488  156.3905 N.pl3   1  UNL1       -0.2305
     17 C         143.7441  136.9751  155.8060 C.3     1  UNL1        0.1282
     18 C         143.2540  135.8191  154.9854 C.3     1  UNL1        0.0956
     19 N         141.7839  135.6368  154.7493 N.3     1  UNL1       -0.2685
     20 C         141.2938  134.4808  153.9287 C.3     1  UNL1        0.0897
     21 C         140.8040  136.6105  155.3339 C.3     1  UNL1        0.0956
     22 C         141.2941  137.7665  156.1545 C.3     1  UNL1        0.1282
     23 C         144.0815  143.4149  164.3549 C.3     1  UNL1        0.2525
     24 O         144.9572  142.2140  164.1526 O.3     1  UNL1       -0.4702
     25 C         142.8878  139.7920  166.3261 C.ar    1  UNL1        0.2220
     26 N         142.9729  139.7272  167.8223 N.ar    1  UNL1       -0.2110
     27 C         141.7290  139.8566  168.6505 C.ar    1  UNL1        0.1160
     28 C         140.4000  140.0507  167.9825 C.ar    1  UNL1        0.1085
     29 CL        139.1561  140.1800  168.8108 Cl      1  UNL1       -0.0777
     30 C         140.3149  140.1155  166.4864 C.ar    1  UNL1        0.1472
     31 N         141.5588  139.9861  165.6582 N.ar    1  UNL1       -0.1976
     32 N         138.9859  140.3096  165.8184 N.pl3   1  UNL1       -0.2961
     33 H         138.2839  140.8375  166.2631 H       1  UNL1        0.1537
     34 C         138.7266  139.6994  164.4729 C.ar    1  UNL1        0.0667
     35 C         138.7802  138.2102  164.3018 C.ar    1  UNL1        0.0159
     36 C         138.5208  137.6000  162.9564 C.ar    1  UNL1        0.0014
     37 C         138.2078  138.4791  161.7819 C.ar    1  UNL1        0.0014
     38 C         138.1542  139.9683  161.9530 C.ar    1  UNL1        0.0196
     39 C         138.4136  140.5785  163.2985 C.ar    1  UNL1        0.1189
     40 S         138.3600  142.0678  163.4696 S.O2    1  UNL1        0.0082
     41 O         139.8442  142.0965  163.6845 O.2     1  UNL1       -0.1686
     42 O         136.8757  142.0390  163.2548 O.2     1  UNL1       -0.1686
     43 C         138.3064  143.5570  163.6407 C.3     1  UNL1        0.1340
     44 C         138.7461  144.4566  162.5238 C.3     1  UNL1        0.0257
     45 C         137.8131  144.1467  164.9287 C.3     1  UNL1        0.0257
@<TRIPOS>BOND
     1    23    24    1
     2    24     3    1
     3     3     4   ar
     4     4     5   ar
     5     5     6   ar
     6     6     7   ar
     7     7     8   ar
     8     8     1    1
     9     1    25    1
    10    25    26   ar
    11    26    27   ar
    12    27    28   ar
    13    28    29    1
    14    28    30   ar
    15    30    32    1
    16    32    34    1
    17    34    35   ar
    18    35    36   ar
    19    36    37   ar
    20    37    38   ar
    21    38    39   ar
    22    39    40    1
    23    40    41    2
    24    40    42    2
    25    40    43    1
    26    43    44    1
    27    43    45    1
    28    30    31   ar
    29     6     9    1
    30     9    10    1
    31    10    11    1
    32    11    12    2
    33    12    16    1
    34    16    17    1
    35    17    18    1
    36    18    19    1
    37    19    20    1
    38    19    21    1
    39    21    22    1
    40    11    13    1
    41    13    14    1
    42    13    15    1
    43     8     3   ar
    44    31    25   ar
    45    22    16    1
    46    13     5    1
    47    39    34   ar
    48     1     2    1
    49    32    33    1
@<TRIPOS>MOLECULE
*****
 45 49 0 0 0
SMALL
GASTEIGER

@<TRIPOS>ATOM
      1 N         142.6261  138.6162  165.4466 N.pl3   1  UNL1       -0.2801
      2 H         142.9545  137.7822  165.8538 H       1  UNL1        0.1552
      3 C         143.8747  139.2477  163.2574 C.ar    1  UNL1        0.1517
      4 C         143.8820  139.4076  161.7660 C.ar    1  UNL1        0.0339
      5 C         142.6479  139.0961  160.9723 C.ar    1  UNL1       -0.0187
      6 C         141.4066  138.6246  161.6700 C.ar    1  UNL1       -0.0240
      7 C         141.3993  138.4647  163.1614 C.ar    1  UNL1        0.0132
      8 C         142.6334  138.7762  163.9551 C.ar    1  UNL1        0.0846
      9 C         140.1725  138.3131  160.8762 C.3     1  UNL1        0.0321
     10 C         140.1797  138.4731  159.3849 C.3     1  UNL1        0.0478
     11 C         141.4211  138.9446  158.6871 C.2     1  UNL1        0.0572
     12 N         141.4284  139.1045  157.1957 N.2     1  UNL1       -0.1905
     13 C         142.6552  139.2561  159.4808 C.3     1  UNL1        0.0517
     14 C         144.0614  139.6735  159.7944 C.3     1  UNL1        0.0100
     15 C         143.1508  139.5610  158.0983 C.3     1  UNL1        0.0100
     16 N         140.1943  138.7930  156.4020 N.pl3   1  UNL1       -0.2305
     17 C         139.9623  137.4018  155.8913 C.3     1  UNL1        0.1282
     18 C         138.7282  137.0903  155.0976 C.3     1  UNL1        0.0956
     19 N         137.7261  138.1700  154.8145 N.3     1  UNL1       -0.2685
     20 C         136.4920  137.8585  154.0208 C.3     1  UNL1        0.0897
     21 C         137.9581  139.5612  155.3252 C.3     1  UNL1        0.0956
     22 C         139.1922  139.8727  156.1189 C.3     1  UNL1        0.1282
     23 C         145.6520  140.9571  164.0753 C.3     1  UNL1        0.2525
     24 O         145.1088  139.5592  164.0512 O.3     1  UNL1       -0.4702
     25 C         142.1185  139.7270  166.3175 C.ar    1  UNL1        0.2220
     26 N         142.1985  139.6057  167.8105 N.ar    1  UNL1       -0.2110
     27 C         141.6909  140.7165  168.6815 C.ar    1  UNL1        0.1160
     28 C         141.1033  141.9485  168.0594 C.ar    1  UNL1        0.1085
     29 CL        140.5956  143.0592  168.9304 Cl      1  UNL1       -0.0777
     30 C         141.0233  142.0697  166.5665 C.ar    1  UNL1        0.1472
     31 N         141.5309  140.9589  165.6956 N.ar    1  UNL1       -0.1976
     32 N         140.4356  143.3017  165.9444 N.pl3   1  UNL1       -0.2961
     33 H         140.5783  144.1809  166.3639 H       1  UNL1        0.1537
     34 C         139.6306  143.1942  164.6833 C.ar    1  UNL1        0.0667
     35 C         138.1787  142.8236  164.7497 C.ar    1  UNL1        0.0159
     36 C         137.3737  142.7161  163.4886 C.ar    1  UNL1        0.0014
     37 C         138.0207  142.9791  162.1611 C.ar    1  UNL1        0.0014
     38 C         139.4726  143.3497  162.0947 C.ar    1  UNL1        0.0196
     39 C         140.2776  143.4572  163.3559 C.ar    1  UNL1        0.1189
     40 S         141.7296  143.8278  163.2895 S.O2    1  UNL1        0.0082
     41 O         141.4165  145.1633  163.8966 O.2     1  UNL1       -0.1686
     42 O         142.0427  142.4924  162.6825 O.2     1  UNL1       -0.1686
     43 C         143.1816  144.1984  163.2232 C.3     1  UNL1        0.1340
     44 C         144.0505  143.6353  162.1378 C.3     1  UNL1        0.0257
     45 C         143.7647  145.1320  164.2422 C.3     1  UNL1        0.0257
@<TRIPOS>BOND
     1    23    24    1
     2    24     3    1
     3     3     4   ar
     4     4     5   ar
     5     5     6   ar
     6     6     7   ar
     7     7     8   ar
     8     8     1    1
     9     1    25    1
    10    25    26   ar
    11    26    27   ar
    12    27    28   ar
    13    28    29    1
    14    28    30   ar
    15    30    32    1
    16    32    34    1
    17    34    35   ar
    18    35    36   ar
    19    36    37   ar
    20    37    38   ar
    21    38    39   ar
    22    39    40    1
    23    40    41    2
    24    40    42    2
    25    40    43    1
    26    43    44    1
    27    43    45    1
    28    30    31   ar
    29     6     9    1
    30     9    10    1
    31    10    11    1
    32    11    12    2
    33    12    16    1
    34    16    17    1
    35    17    18    1
    36    18    19    1
    37    19    20    1
    38    19    21    1
    39    21    22    1
    40    11    13    1
    41    13    14    1
    42    13    15    1
    43     8     3   ar
    44    31    25   ar
    45    22    16    1
    46    13     5    1
    47    39    34   ar
    48     1     2    1
    49    32    33    1
@<TRIPOS>MOLECULE
*****
 45 49 0 0 0
SMALL
GASTEIGER

@<TRIPOS>ATOM
      1 N         139.6741  143.8465  160.0250 N.pl3   1  UNL1       -0.2801
      2 H         139.1162  144.4925  159.5345 H       1  UNL1        0.1552
      3 C         141.8436  143.3487  158.6850 C.ar    1  UNL1        0.1517
      4 C         142.7136  142.3859  157.9327 C.ar    1  UNL1        0.0339
      5 C         142.2843  140.9581  157.7681 C.ar    1  UNL1       -0.0187
      6 C         140.9850  140.4931  158.3559 C.ar    1  UNL1       -0.0240
      7 C         140.1150  141.4558  159.1081 C.ar    1  UNL1        0.0132
      8 C         140.5442  142.8837  159.2727 C.ar    1  UNL1        0.0846
      9 C         140.5558  139.0652  158.1913 C.3     1  UNL1        0.0321
     10 C         141.4258  138.1024  157.4390 C.3     1  UNL1        0.0478
     11 C         142.7252  138.5674  156.8512 C.2     1  UNL1        0.0572
     12 N         143.5953  137.6047  156.0989 N.2     1  UNL1       -0.1905
     13 C         143.1545  139.9953  157.0158 C.3     1  UNL1        0.0517
     14 C         143.9862  141.2386  156.9058 C.3     1  UNL1        0.0100
     15 C         144.3134  139.4643  156.2253 C.3     1  UNL1        0.0100
     16 N         143.1660  136.1768  155.9344 N.pl3   1  UNL1       -0.2305
     17 C         143.4392  135.1814  157.0226 C.3     1  UNL1        0.1282
     18 C         143.0099  133.7536  156.8581 C.3     1  UNL1        0.0956
     19 N         142.3075  133.3212  155.6053 N.3     1  UNL1       -0.2685
     20 C         141.8782  131.8934  155.4407 C.3     1  UNL1        0.0897
     21 C         142.0343  134.3167  154.5169 C.3     1  UNL1        0.0956
     22 C         142.4635  135.7445  154.6815 C.3     1  UNL1        0.1282
     23 C         141.9160  145.7921  157.8049 C.3     1  UNL1        0.2525
     24 O         142.2728  144.7765  158.8495 O.3     1  UNL1       -0.4702
     25 C         139.6540  143.8249  161.5248 C.ar    1  UNL1        0.2220
     26 N         138.8211  144.8193  162.2781 N.ar    1  UNL1       -0.2110
     27 C         138.8010  144.7978  163.7778 C.ar    1  UNL1        0.1160
     28 C         139.6139  143.7817  164.5242 C.ar    1  UNL1        0.1085
     29 CL        139.5938  143.7602  166.0239 Cl      1  UNL1       -0.0777
     30 C         140.4467  142.7874  163.7709 C.ar    1  UNL1        0.1472
     31 N         140.4668  142.8090  162.2712 N.ar    1  UNL1       -0.1976
     32 N         141.2596  141.7714  164.5173 N.pl3   1  UNL1       -0.2961
     33 H         140.8229  141.1689  165.1620 H       1  UNL1        0.1537
     34 C         142.7377  141.6733  164.2815 C.ar    1  UNL1        0.0667
     35 C         143.6278  142.8359  164.6072 C.ar    1  UNL1        0.0159
     36 C         145.1059  142.7378  164.3714 C.ar    1  UNL1        0.0014
     37 C         145.6939  141.4772  163.8098 C.ar    1  UNL1        0.0014
     38 C         144.8037  140.3147  163.4841 C.ar    1  UNL1        0.0196
     39 C         143.3255  140.4128  163.7199 C.ar    1  UNL1        0.1189
     40 S         142.4353  139.2503  163.3942 S.O2    1  UNL1        0.0082
     41 O         142.6853  138.6769  164.7576 O.2     1  UNL1       -0.1686
     42 O         142.1854  139.8237  162.0309 O.2     1  UNL1       -0.1686
     43 C         141.5451  138.0877  163.0685 C.3     1  UNL1        0.1340
     44 C         141.1821  137.0988  164.1364 C.3     1  UNL1        0.0257
     45 C         141.0180  137.9141  161.6750 C.3     1  UNL1        0.0257
@<TRIPOS>BOND
     1    23    24    1
     2    24     3    1
     3     3     4   ar
     4     4     5   ar
     5     5     6   ar
     6     6     7   ar
     7     7     8   ar
     8     8     1    1
     9     1    25    1
    10    25    26   ar
    11    26    27   ar
    12    27    28   ar
    13    28    29    1
    14    28    30   ar
    15    30    32    1
    16    32    34    1
    17    34    35   ar
    18    35    36   ar
    19    36    37   ar
    20    37    38   ar
    21    38    39   ar
    22    39    40    1
    23    40    41    2
    24    40    42    2
    25    40    43    1
    26    43    44    1
    27    43    45    1
    28    30    31   ar
    29     6     9    1
    30     9    10    1
    31    10    11    1
    32    11    12    2
    33    12    16    1
    34    16    17    1
    35    17    18    1
    36    18    19    1
    37    19    20    1
    38    19    21    1
    39    21    22    1
    40    11    13    1
    41    13    14    1
    42    13    15    1
    43     8     3   ar
    44    31    25   ar
    45    22    16    1
    46    13     5    1
    47    39    34   ar
    48     1     2    1
    49    32    33    1
@<TRIPOS>MOLECULE
*****
 45 49 0 0 0
SMALL
GASTEIGER

@<TRIPOS>ATOM
      1 N         140.0122  143.8866  165.4886 N.pl3   1  UNL1       -0.2801
      2 H         139.5098  144.6037  165.9387 H       1  UNL1        0.1552
      3 C         141.2275  144.5685  163.2958 C.ar    1  UNL1        0.1517
      4 C         141.3183  144.5421  161.7988 C.ar    1  UNL1        0.0339
      5 C         140.2845  143.8077  160.9975 C.ar    1  UNL1       -0.0187
      6 C         139.1601  143.0996  161.6932 C.ar    1  UNL1       -0.0240
      7 C         139.0693  143.1259  163.1902 C.ar    1  UNL1        0.0132
      8 C         140.1030  143.8603  163.9915 C.ar    1  UNL1        0.0846
      9 C         138.1264  142.3651  160.8919 C.3     1  UNL1        0.0321
     10 C         138.2171  142.3388  159.3950 C.3     1  UNL1        0.0478
     11 C         139.3416  143.0470  158.6992 C.2     1  UNL1        0.0572
     12 N         139.4324  143.0206  157.2022 N.2     1  UNL1       -0.1905
     13 C         140.3754  143.7814  159.5004 C.3     1  UNL1        0.0517
     14 C         141.5867  144.6062  159.8204 C.3     1  UNL1        0.0100
     15 C         140.8868  144.0415  158.1145 C.3     1  UNL1        0.0100
     16 N         138.3987  142.2862  156.4009 N.pl3   1  UNL1       -0.2305
     17 C         137.1502  142.9916  155.9610 C.3     1  UNL1        0.1282
     18 C         136.1165  142.2572  155.1597 C.3     1  UNL1        0.0956
     19 N         136.3313  140.8173  154.7984 N.3     1  UNL1       -0.2685
     20 C         135.2976  140.0829  153.9971 C.3     1  UNL1        0.0897
     21 C         137.5798  140.1118  155.2383 C.3     1  UNL1        0.0956
     22 C         138.6135  140.8463  156.0396 C.3     1  UNL1        0.1282
     23 C         143.7123  145.1863  163.7358 C.3     1  UNL1        0.2525
     24 O         142.2612  145.3029  164.0971 O.3     1  UNL1       -0.4702
     25 C         140.6868  142.8203  166.2997 C.ar    1  UNL1        0.2220
     26 N         140.5456  142.8119  167.7930 N.ar    1  UNL1       -0.2110
     27 C         141.2202  141.7456  168.6042 C.ar    1  UNL1        0.1160
     28 C         142.0359  140.6877  167.9219 C.ar    1  UNL1        0.1085
     29 CL        142.7105  139.6213  168.7330 Cl      1  UNL1       -0.0777
     30 C         142.1770  140.6961  166.4286 C.ar    1  UNL1        0.1472
     31 N         141.5025  141.7624  165.6175 N.ar    1  UNL1       -0.1976
     32 N         142.9927  139.6381  165.7463 N.pl3   1  UNL1       -0.2961
     33 H         143.8964  139.4255  166.0742 H       1  UNL1        0.1537
     34 C         142.4317  138.9042  164.5647 C.ar    1  UNL1        0.0667
     35 C         141.4631  137.7777  164.7721 C.ar    1  UNL1        0.0159
     36 C         140.9020  137.0438  163.5904 C.ar    1  UNL1        0.0014
     37 C         141.3095  137.4362  162.2012 C.ar    1  UNL1        0.0014
     38 C         142.2781  138.5626  161.9937 C.ar    1  UNL1        0.0196
     39 C         142.8392  139.2966  163.1755 C.ar    1  UNL1        0.1189
     40 S         143.8077  140.4230  162.9680 S.O2    1  UNL1        0.0082
     41 O         144.9201  139.5627  163.4902 O.2     1  UNL1       -0.1686
     42 O         142.6954  141.2833  162.4458 O.2     1  UNL1       -0.1686
     43 C         144.7763  141.5494  162.7605 C.3     1  UNL1        0.1340
     44 C         145.8080  141.8537  163.8061 C.3     1  UNL1        0.0257
     45 C         144.7133  142.3716  161.5075 C.3     1  UNL1        0.0257
@<TRIPOS>BOND
     1    23    24    1
     2    24     3    1
     3     3     4   ar
     4     4     5   ar
     5     5     6   ar
     6     6     7   ar
     7     7     8   ar
     8     8     1    1
     9     1    25    1
    10    25    26   ar
    11    26    27   ar
    12    27    28   ar
    13    28    29    1
    14    28    30   ar
    15    30    32    1
    16    32    34    1
    17    34    35   ar
    18    35    36   ar
    19    36    37   ar
    20    37    38   ar
    21    38    39   ar
    22    39    40    1
    23    40    41    2
    24    40    42    2
    25    40    43    1
    26    43    44    1
    27    43    45    1
    28    30    31   ar
    29     6     9    1
    30     9    10    1
    31    10    11    1
    32    11    12    2
    33    12    16    1
    34    16    17    1
    35    17    18    1
    36    18    19    1
    37    19    20    1
    38    19    21    1
    39    21    22    1
    40    11    13    1
    41    13    14    1
    42    13    15    1
    43     8     3   ar
    44    31    25   ar
    45    22    16    1
    46    13     5    1
    47    39    34   ar
    48     1     2    1
    49    32    33    1
@<TRIPOS>MOLECULE
*****
 45 49 0 0 0
SMALL
GASTEIGER

@<TRIPOS>ATOM
      1 N         143.3294  143.6431  161.0205 N.pl3   1  UNL1       -0.2801
      2 H         144.2046  144.0756  161.1478 H       1  UNL1        0.1552
      3 C         142.7805  143.3083  158.5032 C.ar    1  UNL1        0.1517
      4 C         142.5571  142.3978  157.3323 C.ar    1  UNL1        0.0339
      5 C         142.6593  140.9116  157.5076 C.ar    1  UNL1       -0.0187
      6 C         142.9849  140.3359  158.8539 C.ar    1  UNL1       -0.0240
      7 C         143.2083  141.2464  160.0248 C.ar    1  UNL1        0.0132
      8 C         143.1060  142.7326  159.8495 C.ar    1  UNL1        0.0846
      9 C         143.0871  138.8497  159.0292 C.3     1  UNL1        0.0321
     10 C         142.8638  137.9392  157.8583 C.3     1  UNL1        0.0478
     11 C         142.5382  138.5149  156.5120 C.2     1  UNL1        0.0572
     12 N         142.3148  137.6045  155.3410 N.2     1  UNL1       -0.1905
     13 C         142.4360  140.0012  156.3366 C.3     1  UNL1        0.0517
     14 C         142.2315  141.3316  155.6748 C.3     1  UNL1        0.0100
     15 C         142.1416  139.5527  154.9358 C.3     1  UNL1        0.0100
     16 N         142.4171  136.1183  155.5164 N.pl3   1  UNL1       -0.2305
     17 C         141.2286  135.2467  155.2374 C.3     1  UNL1        0.1282
     18 C         141.3309  133.7605  155.4128 C.3     1  UNL1        0.0956
     19 N         142.6215  133.1459  155.8671 N.3     1  UNL1       -0.2685
     20 C         142.7237  131.6597  156.0424 C.3     1  UNL1        0.0897
     21 C         143.8100  134.0175  156.1461 C.3     1  UNL1        0.0956
     22 C         143.7078  135.5037  155.9707 C.3     1  UNL1        0.1282
     23 C         141.3338  145.4401  158.1679 C.3     1  UNL1        0.2525
     24 O         142.6783  144.7945  158.3279 O.3     1  UNL1       -0.4702
     25 C         142.2193  143.8945  161.9975 C.ar    1  UNL1        0.2220
     26 N         142.3461  144.9938  163.0102 N.ar    1  UNL1       -0.2110
     27 C         141.2360  145.2452  163.9872 C.ar    1  UNL1        0.1160
     28 C         139.9991  144.3973  163.9514 C.ar    1  UNL1        0.1085
     29 CL        138.8890  144.6487  164.9284 Cl      1  UNL1       -0.0777
     30 C         139.8724  143.2981  162.9387 C.ar    1  UNL1        0.1472
     31 N         140.9825  143.0467  161.9618 N.ar    1  UNL1       -0.1976
     32 N         138.6354  142.4502  162.9030 N.pl3   1  UNL1       -0.2961
     33 H         137.8183  142.7896  162.4713 H       1  UNL1        0.1537
     34 C         138.6436  141.0853  163.5249 C.ar    1  UNL1        0.0667
     35 C         138.4281  140.9326  165.0015 C.ar    1  UNL1        0.0159
     36 C         138.4362  139.5677  165.6235 C.ar    1  UNL1        0.0014
     37 C         138.6598  138.3553  164.7688 C.ar    1  UNL1        0.0014
     38 C         138.8753  138.5080  163.2922 C.ar    1  UNL1        0.0196
     39 C         138.8671  139.8730  162.6703 C.ar    1  UNL1        0.1189
     40 S         139.0826  140.0257  161.1937 S.O2    1  UNL1        0.0082
     41 O         140.4832  139.5105  161.3448 O.2     1  UNL1       -0.1686
     42 O         137.6820  140.5410  161.0426 O.2     1  UNL1       -0.1686
     43 C         139.2981  140.1784  159.7172 C.3     1  UNL1        0.1340
     44 C         139.4526  138.9627  158.8521 C.3     1  UNL1        0.0257
     45 C         139.3591  141.5467  159.1057 C.3     1  UNL1        0.0257
@<TRIPOS>BOND
     1    23    24    1
     2    24     3    1
     3     3     4   ar
     4     4     5   ar
     5     5     6   ar
     6     6     7   ar
     7     7     8   ar
     8     8     1    1
     9     1    25    1
    10    25    26   ar
    11    26    27   ar
    12    27    28   ar
    13    28    29    1
    14    28    30   ar
    15    30    32    1
    16    32    34    1
    17    34    35   ar
    18    35    36   ar
    19    36    37   ar
    20    37    38   ar
    21    38    39   ar
    22    39    40    1
    23    40    41    2
    24    40    42    2
    25    40    43    1
    26    43    44    1
    27    43    45    1
    28    30    31   ar
    29     6     9    1
    30     9    10    1
    31    10    11    1
    32    11    12    2
    33    12    16    1
    34    16    17    1
    35    17    18    1
    36    18    19    1
    37    19    20    1
    38    19    21    1
    39    21    22    1
    40    11    13    1
    41    13    14    1
    42    13    15    1
    43     8     3   ar
    44    31    25   ar
    45    22    16    1
    46    13     5    1
    47    39    34   ar
    48     1     2    1
    49    32    33    1
@<TRIPOS>MOLECULE
*****
 45 49 0 0 0
SMALL
GASTEIGER

@<TRIPOS>ATOM
      1 N         143.6758  141.1597  160.2412 N.pl3   1  UNL1       -0.2801
      2 H         144.3091  140.5078  159.8627 H       1  UNL1        0.1552
      3 C         141.5956  141.1133  158.6854 C.ar    1  UNL1        0.1517
      4 C         140.6282  141.8270  157.7883 C.ar    1  UNL1        0.0339
      5 C         140.7734  143.3008  157.5502 C.ar    1  UNL1       -0.0187
      6 C         141.8861  144.0609  158.2090 C.ar    1  UNL1       -0.0240
      7 C         142.8535  143.3472  159.1060 C.ar    1  UNL1        0.0132
      8 C         142.7083  141.8734  159.3442 C.ar    1  UNL1        0.0846
      9 C         142.0314  145.5348  157.9708 C.3     1  UNL1        0.0321
     10 C         141.0640  146.2485  157.0738 C.3     1  UNL1        0.0478
     11 C         139.9512  145.4884  156.4149 C.2     1  UNL1        0.0572
     12 N         138.9838  146.2021  155.5179 N.2     1  UNL1       -0.1905
     13 C         139.8059  144.0145  156.6531 C.3     1  UNL1        0.0517
     14 C         139.2587  142.6205  156.5697 C.3     1  UNL1        0.0100
     15 C         138.6484  144.2441  155.7271 C.3     1  UNL1        0.0100
     16 N         139.1291  147.6759  155.2797 N.pl3   1  UNL1       -0.2305
     17 C         139.9313  148.1716  154.1132 C.3     1  UNL1        0.1282
     18 C         140.0765  149.6454  153.8750 C.3     1  UNL1        0.0956
     19 N         139.4196  150.6235  154.8033 N.3     1  UNL1       -0.2685
     20 C         139.5649  152.0974  154.5651 C.3     1  UNL1        0.0897
     21 C         138.6174  150.1278  155.9699 C.3     1  UNL1        0.0956
     22 C         138.4721  148.6540  156.2081 C.3     1  UNL1        0.1282
     23 C         140.0888  139.0099  158.9209 C.3     1  UNL1        0.2525
     24 O         141.4503  139.6395  158.9235 O.3     1  UNL1       -0.4702
     25 C         143.6783  141.4392  161.7150 C.ar    1  UNL1        0.2220
     26 N         144.9229  141.9486  162.3796 N.ar    1  UNL1       -0.2110
     27 C         144.9255  142.2281  163.8533 C.ar    1  UNL1        0.1160
     28 C         143.6834  141.9982  164.6624 C.ar    1  UNL1        0.1085
     29 CL        143.6860  142.2778  166.1361 Cl      1  UNL1       -0.0777
     30 C         142.4389  141.4889  163.9978 C.ar    1  UNL1        0.1472
     31 N         142.4364  141.2094  162.5241 N.ar    1  UNL1       -0.1976
     32 N         141.1969  141.2591  164.8069 N.pl3   1  UNL1       -0.2961
     33 H         141.1409  140.4861  165.4140 H       1  UNL1        0.1537
     34 C         140.0402  142.2069  164.6910 C.ar    1  UNL1        0.0667
     35 C         140.1665  143.6107  165.2044 C.ar    1  UNL1        0.0159
     36 C         139.0097  144.5586  165.0885 C.ar    1  UNL1        0.0014
     37 C         137.7266  144.1027  164.4591 C.ar    1  UNL1        0.0014
     38 C         137.6004  142.6990  163.9458 C.ar    1  UNL1        0.0196
     39 C         138.7572  141.7511  164.0617 C.ar    1  UNL1        0.1189
     40 S         138.6309  140.3473  163.5483 S.O2    1  UNL1        0.0082
     41 O         138.1218  139.9033  164.8876 O.2     1  UNL1       -0.1686
     42 O         139.1400  140.7913  162.2091 O.2     1  UNL1       -0.1686
     43 C         138.5046  138.9436  163.0350 C.3     1  UNL1        0.1340
     44 C         139.1549  137.8128  163.7756 C.3     1  UNL1        0.0257
     45 C         137.7280  138.6706  161.7810 C.3     1  UNL1        0.0257
@<TRIPOS>BOND
     1    23    24    1
     2    24     3    1
     3     3     4   ar
     4     4     5   ar
     5     5     6   ar
     6     6     7   ar
     7     7     8   ar
     8     8     1    1
     9     1    25    1
    10    25    26   ar
    11    26    27   ar
    12    27    28   ar
    13    28    29    1
    14    28    30   ar
    15    30    32    1
    16    32    34    1
    17    34    35   ar
    18    35    36   ar
    19    36    37   ar
    20    37    38   ar
    21    38    39   ar
    22    39    40    1
    23    40    41    2
    24    40    42    2
    25    40    43    1
    26    43    44    1
    27    43    45    1
    28    30    31   ar
    29     6     9    1
    30     9    10    1
    31    10    11    1
    32    11    12    2
    33    12    16    1
    34    16    17    1
    35    17    18    1
    36    18    19    1
    37    19    20    1
    38    19    21    1
    39    21    22    1
    40    11    13    1
    41    13    14    1
    42    13    15    1
    43     8     3   ar
    44    31    25   ar
    45    22    16    1
    46    13     5    1
    47    39    34   ar
    48     1     2    1
    49    32    33    1
@<TRIPOS>MOLECULE
*****
 45 49 0 0 0
SMALL
GASTEIGER

@<TRIPOS>ATOM
      1 N         139.9846  143.9924  165.4273 N.pl3   1  UNL1       -0.2801
      2 H         139.5441  144.7389  165.8941 H       1  UNL1        0.1552
      3 C         141.1219  144.7604  163.2212 C.ar    1  UNL1        0.1517
      4 C         141.1907  144.7488  161.7228 C.ar    1  UNL1        0.0339
      5 C         140.1911  143.9578  160.9322 C.ar    1  UNL1       -0.0187
      6 C         139.1227  143.1783  161.6399 C.ar    1  UNL1       -0.0240
      7 C         139.0539  143.1898  163.1383 C.ar    1  UNL1        0.0132
      8 C         140.0535  143.9809  163.9289 C.ar    1  UNL1        0.0846
      9 C         138.1232  142.3872  160.8493 C.3     1  UNL1        0.0321
     10 C         138.1920  142.3756  159.3510 C.3     1  UNL1        0.0478
     11 C         139.2604  143.1552  158.6432 C.2     1  UNL1        0.0572
     12 N         139.3292  143.1436  157.1448 N.2     1  UNL1       -0.1905
     13 C         140.2599  143.9462  159.4338 C.3     1  UNL1        0.0517
     14 C         141.4238  144.8412  159.7411 C.3     1  UNL1        0.0100
     15 C         140.7329  144.2455  158.0421 C.3     1  UNL1        0.0100
     16 N         138.3296  142.3525  156.3542 N.pl3   1  UNL1       -0.2305
     17 C         138.6277  140.9320  155.9757 C.3     1  UNL1        0.1282
     18 C         137.6281  140.1410  155.1851 C.3     1  UNL1        0.0956
     19 N         136.3305  140.7704  154.7729 N.3     1  UNL1       -0.2685
     20 C         135.3309  139.9794  153.9823 C.3     1  UNL1        0.0897
     21 C         136.0324  142.1910  155.1514 C.3     1  UNL1        0.0956
     22 C         137.0319  142.9821  155.9420 C.3     1  UNL1        0.1282
     23 C         143.5713  145.1679  163.9855 C.3     1  UNL1        0.2525
     24 O         142.1214  145.5514  164.0118 O.3     1  UNL1       -0.4702
     25 C         140.5870  142.8666  166.2145 C.ar    1  UNL1        0.2220
     26 N         140.5257  142.8823  167.7132 N.ar    1  UNL1       -0.2110
     27 C         141.1281  141.7565  168.5003 C.ar    1  UNL1        0.1160
     28 C         141.7919  140.6149  167.7887 C.ar    1  UNL1        0.1085
     29 CL        142.3943  139.4890  168.5759 Cl      1  UNL1       -0.0777
     30 C         141.8531  140.5992  166.2901 C.ar    1  UNL1        0.1472
     31 N         141.2507  141.7250  165.5030 N.ar    1  UNL1       -0.1976
     32 N         142.5169  139.4575  165.5785 N.pl3   1  UNL1       -0.2961
     33 H         142.6382  138.5951  166.0376 H       1  UNL1        0.1537
     34 C         142.9957  139.6299  164.1675 C.ar    1  UNL1        0.0667
     35 C         144.3453  140.2278  163.9013 C.ar    1  UNL1        0.0159
     36 C         144.8241  140.4002  162.4903 C.ar    1  UNL1        0.0014
     37 C         143.9533  139.9747  161.3454 C.ar    1  UNL1        0.0014
     38 C         142.6036  139.3768  161.6117 C.ar    1  UNL1        0.0196
     39 C         142.1248  139.2044  163.0228 C.ar    1  UNL1        0.1189
     40 S         140.7751  138.6065  163.2890 S.O2    1  UNL1        0.0082
     41 O         140.1212  139.8632  162.7960 O.2     1  UNL1       -0.1686
     42 O         141.4291  137.3498  163.7821 O.2     1  UNL1       -0.1686
     43 C         139.4255  138.0086  163.5553 C.3     1  UNL1        0.1340
     44 C         138.4375  137.8589  162.4365 C.3     1  UNL1        0.0257
     45 C         139.0637  137.5603  164.9402 C.3     1  UNL1        0.0257
@<TRIPOS>BOND
     1    23    24    1
     2    24     3    1
     3     3     4   ar
     4     4     5   ar
     5     5     6   ar
     6     6     7   ar
     7     7     8   ar
     8     8     1    1
     9     1    25    1
    10    25    26   ar
    11    26    27   ar
    12    27    28   ar
    13    28    29    1
    14    28    30   ar
    15    30    32    1
    16    32    34    1
    17    34    35   ar
    18    35    36   ar
    19    36    37   ar
    20    37    38   ar
    21    38    39   ar
    22    39    40    1
    23    40    41    2
    24    40    42    2
    25    40    43    1
    26    43    44    1
    27    43    45    1
    28    30    31   ar
    29     6     9    1
    30     9    10    1
    31    10    11    1
    32    11    12    2
    33    12    16    1
    34    16    17    1
    35    17    18    1
    36    18    19    1
    37    19    20    1
    38    19    21    1
    39    21    22    1
    40    11    13    1
    41    13    14    1
    42    13    15    1
    43     8     3   ar
    44    31    25   ar
    45    22    16    1
    46    13     5    1
    47    39    34   ar
    48     1     2    1
    49    32    33    1
