@<TRIPOS>MOLECULE
*****
 33 36 0 0 0
SMALL
GASTEIGER

@<TRIPOS>ATOM
      1 C         142.5928  138.6393  159.6971 C.3     1  UNL1        0.0758
      2 C         143.2699  138.0652  160.9062 C.3     1  UNL1        0.0370
      3 C         142.4508  137.5860  162.0678 C.3     1  UNL1        0.0741
      4 N         140.9546  137.6807  162.0203 N.3     1  UNL1       -0.2688
      5 C         140.2774  138.2548  160.8112 C.3     1  UNL1        0.0741
      6 C         141.0965  138.7340  159.6496 C.3     1  UNL1        0.0370
      7 O         143.8599  141.3575  159.7751 O.2     1  UNL1       -0.2526
      8 C         144.0454  140.4776  158.5745 C.2     1  UNL1        0.3040
      9 N         143.4119  139.1186  158.5355 N.am    1  UNL1       -0.2903
     10 N         144.8645  140.9570  157.4128 N.am    1  UNL1       -0.2617
     11 C         145.1367  140.1928  156.1510 C.3     1  UNL1        0.0976
     12 C         145.9956  141.0481  155.2673 C.3     1  UNL1        0.0525
     13 C         146.2543  142.3408  155.9831 C.3     1  UNL1        0.1320
     14 O         147.0689  143.4883  155.4640 O.3     1  UNL1       -0.3827
     15 C         145.5552  142.2844  157.3090 C.3     1  UNL1        0.1241
     16 H         143.5337  138.5411  157.7474 H       1  UNL1        0.1509
     17 H         147.4105  143.2698  154.5828 H       1  UNL1        0.2104
     18 C         140.1355  137.2014  163.1820 C.3     1  UNL1        0.1007
     19 C         139.9088  138.1000  164.3614 C.ar    1  UNL1        0.0129
     20 C         138.5824  138.4187  164.9849 C.ar    1  UNL1        0.0176
     21 C         138.8226  139.3534  166.1333 C.ar    1  UNL1        0.0799
     22 N         140.2976  139.6123  166.2195 N.ar    1  UNL1       -0.3038
     23 C         140.9689  138.8377  165.1244 C.ar    1  UNL1        0.0772
     24 C         140.9812  140.4915  167.2243 C.ar    1  UNL1        0.0640
     25 C         140.3282  141.7647  167.6741 C.ar    1  UNL1        0.0175
     26 C         141.0118  142.6439  168.6790 C.ar    1  UNL1        0.0053
     27 C         142.3484  142.2498  169.2340 C.ar    1  UNL1        0.0715
     28 C         143.0015  140.9766  168.7842 C.ar    1  UNL1        0.0053
     29 C         142.3179  140.0974  167.7794 C.ar    1  UNL1        0.0175
     30 C         143.0320  143.1290  170.2388 C.3     1  UNL1        0.4186
     31 F         143.7155  144.0083  171.2437 F       1  UNL1       -0.1659
     32 F         144.2599  142.2717  170.1536 F       1  UNL1       -0.1659
     33 F         141.8040  143.9864  170.3241 F       1  UNL1       -0.1659
@<TRIPOS>BOND
     1     7     8    2
     2     8     9   am
     3     9     1    1
     4     1     2    1
     5     2     3    1
     6     3     4    1
     7     4    18    1
     8    18    19    1
     9    19    20   ar
    10    20    21   ar
    11    21    22   ar
    12    22    24    1
    13    24    25   ar
    14    25    26   ar
    15    26    27   ar
    16    27    30    1
    17    30    31    1
    18    30    32    1
    19    30    33    1
    20    27    28   ar
    21    28    29   ar
    22    22    23   ar
    23     4     5    1
    24     5     6    1
    25     8    10   am
    26    10    11    1
    27    11    12    1
    28    12    13    1
    29    13    14    1
    30    13    15    1
    31     6     1    1
    32    15    10    1
    33    23    19   ar
    34    29    24   ar
    35     9    16    1
    36    14    17    1
@<TRIPOS>MOLECULE
*****
 33 36 0 0 0
SMALL
GASTEIGER

@<TRIPOS>ATOM
      1 C         138.2228  139.7824  159.4395 C.3     1  UNL1        0.0758
      2 C         139.5964  139.1808  159.4037 C.3     1  UNL1        0.0370
      3 C         140.1251  138.4467  160.6001 C.3     1  UNL1        0.0741
      4 N         139.2801  138.3142  161.8324 N.3     1  UNL1       -0.2688
      5 C         137.9066  138.9158  161.8683 C.3     1  UNL1        0.0741
      6 C         137.3779  139.6499  160.6718 C.3     1  UNL1        0.0370
      7 O         139.2676  142.5147  158.7737 O.2     1  UNL1       -0.2526
      8 C         138.2165  141.8827  157.9102 C.2     1  UNL1        0.3040
      9 N         137.6941  140.5166  158.2430 N.am    1  UNL1       -0.2903
     10 N         137.6878  142.6169  156.7137 N.am    1  UNL1       -0.2617
     11 C         136.6420  142.1150  155.7626 C.3     1  UNL1        0.0976
     12 C         136.4199  143.1697  154.7193 C.3     1  UNL1        0.0525
     13 C         137.3284  144.3234  155.0257 C.3     1  UNL1        0.1320
     14 O         137.4346  145.5953  154.2379 O.3     1  UNL1       -0.3827
     15 C         138.1119  143.9816  156.2583 C.3     1  UNL1        0.1241
     16 H         137.0042  140.1018  157.6763 H       1  UNL1        0.1509
     17 H         136.8199  145.5635  153.4882 H       1  UNL1        0.2104
     18 C         139.8089  137.5800  163.0289 C.3     1  UNL1        0.1007
     19 C         139.7181  138.2019  164.3909 C.ar    1  UNL1        0.0129
     20 C         138.5971  138.0190  165.3707 C.ar    1  UNL1        0.0176
     21 C         138.9185  138.8199  166.5975 C.ar    1  UNL1        0.0799
     22 N         140.2382  139.4978  166.3760 N.ar    1  UNL1       -0.3038
     23 C         140.7323  139.1159  165.0123 C.ar    1  UNL1        0.0772
     24 C         140.9403  140.3994  167.3477 C.ar    1  UNL1        0.0640
     25 C         142.1872  139.9320  168.0381 C.ar    1  UNL1        0.0175
     26 C         142.8894  140.8336  169.0097 C.ar    1  UNL1        0.0053
     27 C         142.3446  142.2025  169.2910 C.ar    1  UNL1        0.0715
     28 C         141.0977  142.6699  168.6007 C.ar    1  UNL1        0.0053
     29 C         140.3955  141.7683  167.6290 C.ar    1  UNL1        0.0175
     30 C         143.0468  143.1040  170.2627 C.3     1  UNL1        0.4186
     31 F         143.7489  144.0057  171.2344 F       1  UNL1       -0.1659
     32 F         144.2724  142.2437  170.1753 F       1  UNL1       -0.1659
     33 F         141.8211  143.9644  170.3501 F       1  UNL1       -0.1659
@<TRIPOS>BOND
     1     7     8    2
     2     8     9   am
     3     9     1    1
     4     1     2    1
     5     2     3    1
     6     3     4    1
     7     4    18    1
     8    18    19    1
     9    19    20   ar
    10    20    21   ar
    11    21    22   ar
    12    22    24    1
    13    24    25   ar
    14    25    26   ar
    15    26    27   ar
    16    27    30    1
    17    30    31    1
    18    30    32    1
    19    30    33    1
    20    27    28   ar
    21    28    29   ar
    22    22    23   ar
    23     4     5    1
    24     5     6    1
    25     8    10   am
    26    10    11    1
    27    11    12    1
    28    12    13    1
    29    13    14    1
    30    13    15    1
    31     6     1    1
    32    15    10    1
    33    23    19   ar
    34    29    24   ar
    35     9    16    1
    36    14    17    1
@<TRIPOS>MOLECULE
*****
 33 36 0 0 0
SMALL
GASTEIGER

@<TRIPOS>ATOM
      1 C         143.1674  140.0894  159.4594 C.3     1  UNL1        0.0758
      2 C         141.7491  140.5704  159.5423 C.3     1  UNL1        0.0370
      3 C         140.7667  139.8601  160.4257 C.3     1  UNL1        0.0741
      4 N         141.2027  138.6689  161.2263 N.3     1  UNL1       -0.2688
      5 C         142.6211  138.1879  161.1434 C.3     1  UNL1        0.0741
      6 C         143.6034  138.8982  160.2600 C.3     1  UNL1        0.0370
      7 O         143.8316  138.9744  156.7546 O.2     1  UNL1       -0.2526
      8 C         144.4819  140.2422  157.2236 C.2     1  UNL1        0.3040
      9 N         144.1498  140.7997  158.5759 N.am    1  UNL1       -0.2903
     10 N         145.4643  140.9524  156.3401 N.am    1  UNL1       -0.2617
     11 C         146.1904  142.2224  156.6716 C.3     1  UNL1        0.0976
     12 C         147.0680  142.5723  155.5064 C.3     1  UNL1        0.0525
     13 C         146.8842  141.5185  154.4549 C.3     1  UNL1        0.1320
     14 O         147.5710  141.4736  153.1222 O.3     1  UNL1       -0.3827
     15 C         145.8931  140.5173  154.9701 C.3     1  UNL1        0.1241
     16 H         144.5767  141.6317  158.8837 H       1  UNL1        0.1509
     17 H         148.1617  142.2383  153.0370 H       1  UNL1        0.2104
     18 C         140.2203  137.9586  162.1098 C.3     1  UNL1        0.1007
     19 C         140.0739  138.3642  163.5464 C.ar    1  UNL1        0.0129
     20 C         139.0282  137.8680  164.5004 C.ar    1  UNL1        0.0176
     21 C         139.2555  138.5343  165.8250 C.ar    1  UNL1        0.0799
     22 N         140.4417  139.4424  165.6895 N.ar    1  UNL1       -0.3038
     23 C         140.9475  139.3373  164.2813 C.ar    1  UNL1        0.0772
     24 C         141.0205  140.3043  166.7722 C.ar    1  UNL1        0.0640
     25 C         142.1080  139.7693  167.6558 C.ar    1  UNL1        0.0175
     26 C         142.6868  140.6311  168.7385 C.ar    1  UNL1        0.0053
     27 C         142.1780  142.0280  168.9376 C.ar    1  UNL1        0.0715
     28 C         141.0904  142.5631  168.0540 C.ar    1  UNL1        0.0053
     29 C         140.5116  141.7012  166.9713 C.ar    1  UNL1        0.0175
     30 C         142.7567  142.8898  170.0203 C.3     1  UNL1        0.4186
     31 F         143.3354  143.7517  171.1030 F       1  UNL1       -0.1659
     32 F         144.0499  142.1351  169.9298 F       1  UNL1       -0.1659
     33 F         141.4635  143.6446  170.1108 F       1  UNL1       -0.1659
@<TRIPOS>BOND
     1     7     8    2
     2     8     9   am
     3     9     1    1
     4     1     2    1
     5     2     3    1
     6     3     4    1
     7     4    18    1
     8    18    19    1
     9    19    20   ar
    10    20    21   ar
    11    21    22   ar
    12    22    24    1
    13    24    25   ar
    14    25    26   ar
    15    26    27   ar
    16    27    30    1
    17    30    31    1
    18    30    32    1
    19    30    33    1
    20    27    28   ar
    21    28    29   ar
    22    22    23   ar
    23     4     5    1
    24     5     6    1
    25     8    10   am
    26    10    11    1
    27    11    12    1
    28    12    13    1
    29    13    14    1
    30    13    15    1
    31     6     1    1
    32    15    10    1
    33    23    19   ar
    34    29    24   ar
    35     9    16    1
    36    14    17    1
@<TRIPOS>MOLECULE
*****
 33 36 0 0 0
SMALL
GASTEIGER

@<TRIPOS>ATOM
      1 C         138.9835  139.7042  159.5012 C.3     1  UNL1        0.0758
      2 C         138.3976  139.1054  160.7454 C.3     1  UNL1        0.0370
      3 C         137.8548  139.9966  161.8229 C.3     1  UNL1        0.0741
      4 N         137.8979  141.4867  161.6562 N.3     1  UNL1       -0.2688
      5 C         138.4838  142.0855  160.4120 C.3     1  UNL1        0.0741
      6 C         139.0266  141.1943  159.3345 C.3     1  UNL1        0.0370
      7 O         141.9330  139.1842  159.3290 O.2     1  UNL1       -0.2526
      8 C         141.0010  138.5530  158.3375 C.2     1  UNL1        0.3040
      9 N         139.5263  138.8130  158.4236 N.am    1  UNL1       -0.2903
     10 N         141.5439  137.6617  157.2599 N.am    1  UNL1       -0.2617
     11 C         140.7386  136.9646  156.2037 C.3     1  UNL1        0.0976
     12 C         141.6843  136.1832  155.3403 C.3     1  UNL1        0.0525
     13 C         143.0739  136.3975  155.8631 C.3     1  UNL1        0.1320
     14 O         144.3297  135.8025  155.2986 O.3     1  UNL1       -0.3827
     15 C         142.9871  137.3113  157.0494 C.3     1  UNL1        0.1241
     16 H         138.9146  138.3987  157.7729 H       1  UNL1        0.1509
     17 H         144.1095  135.2491  154.5329 H       1  UNL1        0.2104
     18 C         137.3551  142.3779  162.7338 C.3     1  UNL1        0.1007
     19 C         138.1916  142.6934  163.9382 C.ar    1  UNL1        0.0129
     20 C         138.4709  144.0626  164.4835 C.ar    1  UNL1        0.0176
     21 C         139.3476  143.9105  165.6912 C.ar    1  UNL1        0.0799
     22 N         139.6100  142.4474  165.8922 N.ar    1  UNL1       -0.3038
     23 C         138.8956  141.6952  164.8088 C.ar    1  UNL1        0.0772
     24 C         140.4410  141.8427  166.9848 C.ar    1  UNL1        0.0640
     25 C         140.9442  140.4358  166.8531 C.ar    1  UNL1        0.0175
     26 C         141.7752  139.8311  167.9457 C.ar    1  UNL1        0.0053
     27 C         142.1029  140.6332  169.1700 C.ar    1  UNL1        0.0715
     28 C         141.5997  142.0401  169.3018 C.ar    1  UNL1        0.0053
     29 C         140.7687  142.6448  168.2092 C.ar    1  UNL1        0.0175
     30 C         142.9339  140.0285  170.2626 C.3     1  UNL1        0.4186
     31 F         143.7650  139.4239  171.3552 F       1  UNL1       -0.1659
     32 F         142.0446  138.8206  170.2704 F       1  UNL1       -0.1659
     33 F         143.8233  141.2365  170.2548 F       1  UNL1       -0.1659
@<TRIPOS>BOND
     1     7     8    2
     2     8     9   am
     3     9     1    1
     4     1     2    1
     5     2     3    1
     6     3     4    1
     7     4    18    1
     8    18    19    1
     9    19    20   ar
    10    20    21   ar
    11    21    22   ar
    12    22    24    1
    13    24    25   ar
    14    25    26   ar
    15    26    27   ar
    16    27    30    1
    17    30    31    1
    18    30    32    1
    19    30    33    1
    20    27    28   ar
    21    28    29   ar
    22    22    23   ar
    23     4     5    1
    24     5     6    1
    25     8    10   am
    26    10    11    1
    27    11    12    1
    28    12    13    1
    29    13    14    1
    30    13    15    1
    31     6     1    1
    32    15    10    1
    33    23    19   ar
    34    29    24   ar
    35     9    16    1
    36    14    17    1
@<TRIPOS>MOLECULE
*****
 33 36 0 0 0
SMALL
GASTEIGER

@<TRIPOS>ATOM
      1 C         141.9317  143.4512  157.0210 C.3     1  UNL1        0.0758
      2 C         143.2448  143.5360  157.7410 C.3     1  UNL1        0.0370
      3 C         143.7922  142.3310  158.4468 C.3     1  UNL1        0.0741
      4 N         143.0266  141.0412  158.4325 N.3     1  UNL1       -0.2688
      5 C         141.7135  140.9564  157.7125 C.3     1  UNL1        0.0741
      6 C         141.1660  142.1614  157.0067 C.3     1  UNL1        0.0370
      7 O         140.0566  145.3049  158.4522 O.2     1  UNL1       -0.2526
      8 C         140.4466  145.5831  157.0308 C.2     1  UNL1        0.3040
      9 N         141.3841  144.6563  156.3151 N.am    1  UNL1       -0.2903
     10 N         139.8991  146.7881  156.3249 N.am    1  UNL1       -0.2617
     11 C         140.1974  147.1934  154.9118 C.3     1  UNL1        0.0976
     12 C         139.4398  148.4552  154.6218 C.3     1  UNL1        0.0525
     13 C         138.6734  148.8297  155.8557 C.3     1  UNL1        0.1320
     14 O         137.7800  150.0246  156.0099 O.3     1  UNL1       -0.3827
     15 C         138.9573  147.7994  156.9082 C.3     1  UNL1        0.1241
     16 H         141.6401  144.8389  155.3822 H       1  UNL1        0.1509
     17 H         137.7692  150.5293  155.1816 H       1  UNL1        0.2104
     18 C         143.5741  139.8361  159.1384 C.3     1  UNL1        0.1007
     19 C         143.2834  139.6233  160.5944 C.ar    1  UNL1        0.0129
     20 C         144.2890  139.6489  161.7072 C.ar    1  UNL1        0.0176
     21 C         143.5632  139.3889  162.9939 C.ar    1  UNL1        0.0799
     22 N         142.1090  139.2027  162.6764 N.ar    1  UNL1       -0.3038
     23 C         141.9361  139.3475  161.1934 C.ar    1  UNL1        0.0772
     24 C         141.0191  138.9210  163.6677 C.ar    1  UNL1        0.0640
     25 C         140.8174  137.5276  164.1849 C.ar    1  UNL1        0.0175
     26 C         139.7275  137.2459  165.1763 C.ar    1  UNL1        0.0053
     27 C         138.8394  138.3577  165.6504 C.ar    1  UNL1        0.0715
     28 C         139.0410  139.7512  165.1333 C.ar    1  UNL1        0.0053
     29 C         140.1309  140.0329  164.1419 C.ar    1  UNL1        0.0175
     30 C         137.7495  138.0761  166.6418 C.3     1  UNL1        0.4186
     31 F         136.6596  137.7945  167.6332 F       1  UNL1       -0.1659
     32 F         137.8025  136.6198  166.2863 F       1  UNL1       -0.1659
     33 F         137.6964  139.5324  166.9973 F       1  UNL1       -0.1659
@<TRIPOS>BOND
     1     7     8    2
     2     8     9   am
     3     9     1    1
     4     1     2    1
     5     2     3    1
     6     3     4    1
     7     4    18    1
     8    18    19    1
     9    19    20   ar
    10    20    21   ar
    11    21    22   ar
    12    22    24    1
    13    24    25   ar
    14    25    26   ar
    15    26    27   ar
    16    27    30    1
    17    30    31    1
    18    30    32    1
    19    30    33    1
    20    27    28   ar
    21    28    29   ar
    22    22    23   ar
    23     4     5    1
    24     5     6    1
    25     8    10   am
    26    10    11    1
    27    11    12    1
    28    12    13    1
    29    13    14    1
    30    13    15    1
    31     6     1    1
    32    15    10    1
    33    23    19   ar
    34    29    24   ar
    35     9    16    1
    36    14    17    1
@<TRIPOS>MOLECULE
*****
 33 36 0 0 0
SMALL
GASTEIGER

@<TRIPOS>ATOM
      1 C         138.9381  141.2240  159.1658 C.3     1  UNL1        0.0758
      2 C         139.6283  139.9157  158.9172 C.3     1  UNL1        0.0370
      3 C         139.7083  138.8906  160.0092 C.3     1  UNL1        0.0741
      4 N         139.0981  139.1737  161.3499 N.3     1  UNL1       -0.2688
      5 C         138.4079  140.4821  161.5985 C.3     1  UNL1        0.0741
      6 C         138.3279  141.5072  160.5065 C.3     1  UNL1        0.0370
      7 O         140.3630  143.8472  159.4635 O.2     1  UNL1       -0.2526
      8 C         139.5705  143.5608  158.2226 C.2     1  UNL1        0.3040
      9 N         138.8581  142.2492  158.0737 N.am    1  UNL1       -0.2903
     10 N         139.4905  144.5860  157.1305 N.am    1  UNL1       -0.2617
     11 C         138.7405  144.4421  155.8394 C.3     1  UNL1        0.0976
     12 C         138.9329  145.7022  155.0487 C.3     1  UNL1        0.0525
     13 C         139.8018  146.6249  155.8512 C.3     1  UNL1        0.1320
     14 O         140.2477  147.9965  155.4393 O.3     1  UNL1       -0.3827
     15 C         140.1464  145.9350  157.1377 C.3     1  UNL1        0.1241
     16 H         138.3380  142.0613  157.2592 H       1  UNL1        0.1509
     17 H         139.8866  148.2045  154.5634 H       1  UNL1        0.2104
     18 C         139.1781  138.1485  162.4420 C.3     1  UNL1        0.1007
     19 C         140.1665  138.3168  163.5577 C.ar    1  UNL1        0.0129
     20 C         141.2638  137.3587  163.9154 C.ar    1  UNL1        0.0176
     21 C         142.0066  137.9224  165.0903 C.ar    1  UNL1        0.0799
     22 N         141.3684  139.2289  165.4588 N.ar    1  UNL1       -0.3038
     23 C         140.2312  139.4726  164.5115 C.ar    1  UNL1        0.0772
     24 C         141.7929  140.1330  166.5779 C.ar    1  UNL1        0.0640
     25 C         141.3277  139.8626  167.9780 C.ar    1  UNL1        0.0175
     26 C         141.7522  140.7666  169.0971 C.ar    1  UNL1        0.0053
     27 C         142.6419  141.9410  168.8162 C.ar    1  UNL1        0.0715
     28 C         143.1072  142.2114  167.4161 C.ar    1  UNL1        0.0053
     29 C         142.6827  141.3074  166.2969 C.ar    1  UNL1        0.0175
     30 C         143.0664  142.8450  169.9353 C.3     1  UNL1        0.4186
     31 F         143.4910  143.7491  171.0545 F       1  UNL1       -0.1659
     32 F         141.7565  143.5704  169.8462 F       1  UNL1       -0.1659
     33 F         144.3764  142.1197  170.0244 F       1  UNL1       -0.1659
@<TRIPOS>BOND
     1     7     8    2
     2     8     9   am
     3     9     1    1
     4     1     2    1
     5     2     3    1
     6     3     4    1
     7     4    18    1
     8    18    19    1
     9    19    20   ar
    10    20    21   ar
    11    21    22   ar
    12    22    24    1
    13    24    25   ar
    14    25    26   ar
    15    26    27   ar
    16    27    30    1
    17    30    31    1
    18    30    32    1
    19    30    33    1
    20    27    28   ar
    21    28    29   ar
    22    22    23   ar
    23     4     5    1
    24     5     6    1
    25     8    10   am
    26    10    11    1
    27    11    12    1
    28    12    13    1
    29    13    14    1
    30    13    15    1
    31     6     1    1
    32    15    10    1
    33    23    19   ar
    34    29    24   ar
    35     9    16    1
    36    14    17    1
@<TRIPOS>MOLECULE
*****
 33 36 0 0 0
SMALL
GASTEIGER

@<TRIPOS>ATOM
      1 C         138.6750  140.6917  158.5608 C.3     1  UNL1        0.0758
      2 C         138.9151  141.7496  159.5967 C.3     1  UNL1        0.0370
      3 C         140.2841  141.9282  160.1829 C.3     1  UNL1        0.0741
      4 N         141.4131  141.0489  159.7333 N.3     1  UNL1       -0.2688
      5 C         141.1730  139.9909  158.6975 C.3     1  UNL1        0.0741
      6 C         139.8040  139.8123  158.1112 C.3     1  UNL1        0.0370
      7 O         137.9584  142.0484  155.9828 O.2     1  UNL1       -0.2526
      8 C         136.9476  141.1914  156.6856 C.2     1  UNL1        0.3040
      9 N         137.3059  140.5130  157.9745 N.am    1  UNL1       -0.2903
     10 N         135.5785  141.0127  156.0993 N.am    1  UNL1       -0.2617
     11 C         134.4690  140.1906  156.6851 C.3     1  UNL1        0.0976
     12 C         133.2833  140.2946  155.7721 C.3     1  UNL1        0.0525
     13 C         133.6601  141.1810  154.6222 C.3     1  UNL1        0.1320
     14 O         132.7740  141.5575  153.4720 O.3     1  UNL1       -0.3827
     15 C         135.0785  141.6249  154.8244 C.3     1  UNL1        0.1241
     16 H         136.6424  139.9506  158.4358 H       1  UNL1        0.1509
     17 H         131.9065  141.1374  153.5812 H       1  UNL1        0.2104
     18 C         142.7822  141.2275  160.3196 C.3     1  UNL1        0.1007
     19 C         143.1224  140.5954  161.6367 C.ar    1  UNL1        0.0129
     20 C         143.9700  139.3739  161.8356 C.ar    1  UNL1        0.0176
     21 C         144.0462  139.0974  163.3079 C.ar    1  UNL1        0.0799
     22 N         143.2457  140.1480  164.0190 N.ar    1  UNL1       -0.3038
     23 C         142.6748  141.0738  162.9861 C.ar    1  UNL1        0.0772
     24 C         143.0505  140.2541  165.5024 C.ar    1  UNL1        0.0640
     25 C         142.9051  141.6015  166.1453 C.ar    1  UNL1        0.0175
     26 C         142.7098  141.7076  167.6287 C.ar    1  UNL1        0.0053
     27 C         142.6600  140.4663  168.4692 C.ar    1  UNL1        0.0715
     28 C         142.8053  139.1189  167.8264 C.ar    1  UNL1        0.0053
     29 C         143.0006  139.0128  166.3430 C.ar    1  UNL1        0.0175
     30 C         142.4647  140.5724  169.9527 C.3     1  UNL1        0.4186
     31 F         142.2695  140.6786  171.4362 F       1  UNL1       -0.1659
     32 F         141.1655  139.8321  169.8346 F       1  UNL1       -0.1659
     33 F         143.7640  141.3128  170.0708 F       1  UNL1       -0.1659
@<TRIPOS>BOND
     1     7     8    2
     2     8     9   am
     3     9     1    1
     4     1     2    1
     5     2     3    1
     6     3     4    1
     7     4    18    1
     8    18    19    1
     9    19    20   ar
    10    20    21   ar
    11    21    22   ar
    12    22    24    1
    13    24    25   ar
    14    25    26   ar
    15    26    27   ar
    16    27    30    1
    17    30    31    1
    18    30    32    1
    19    30    33    1
    20    27    28   ar
    21    28    29   ar
    22    22    23   ar
    23     4     5    1
    24     5     6    1
    25     8    10   am
    26    10    11    1
    27    11    12    1
    28    12    13    1
    29    13    14    1
    30    13    15    1
    31     6     1    1
    32    15    10    1
    33    23    19   ar
    34    29    24   ar
    35     9    16    1
    36    14    17    1
@<TRIPOS>MOLECULE
*****
 33 36 0 0 0
SMALL
GASTEIGER

@<TRIPOS>ATOM
      1 C         140.0161  145.7565  156.9658 C.3     1  UNL1        0.0758
      2 C         140.8707  145.8263  158.1966 C.3     1  UNL1        0.0370
      3 C         140.9458  144.6506  159.1251 C.3     1  UNL1        0.0741
      4 N         140.1664  143.4052  158.8228 N.3     1  UNL1       -0.2688
      5 C         139.3118  143.3354  157.5921 C.3     1  UNL1        0.0741
      6 C         139.2366  144.5111  156.6636 C.3     1  UNL1        0.0370
      7 O         138.5015  148.2154  157.7784 O.2     1  UNL1       -0.2526
      8 C         139.1836  148.1616  156.4436 C.2     1  UNL1        0.3040
      9 N         139.9409  146.9322  156.0373 N.am    1  UNL1       -0.2903
     10 N         139.1085  149.3373  155.5150 N.am    1  UNL1       -0.2617
     11 C         139.7367  149.4289  154.1560 C.3     1  UNL1        0.0976
     12 C         139.4084  150.7760  153.5834 C.3     1  UNL1        0.0525
     13 C         138.5773  151.5168  154.5887 C.3     1  UNL1        0.1320
     14 O         138.0280  152.9033  154.4284 O.3     1  UNL1       -0.3827
     15 C         138.3920  150.6277  155.7824 C.3     1  UNL1        0.1241
     16 H         140.3886  146.8970  155.1612 H       1  UNL1        0.1509
     17 H         138.2926  153.2581  153.5652 H       1  UNL1        0.2104
     18 C         140.2415  142.2295  159.7514 C.3     1  UNL1        0.1007
     19 C         139.6929  142.3368  161.1433 C.ar    1  UNL1        0.0129
     20 C         138.5172  143.1669  161.5659 C.ar    1  UNL1        0.0176
     21 C         138.3212  142.9761  163.0408 C.ar    1  UNL1        0.0799
     22 N         139.3759  142.0279  163.5296 N.ar    1  UNL1       -0.3038
     23 C         140.2235  141.6329  162.3569 C.ar    1  UNL1        0.0772
     24 C         139.5518  141.5575  164.9430 C.ar    1  UNL1        0.0640
     25 C         138.9915  140.2326  165.3678 C.ar    1  UNL1        0.0175
     26 C         139.1675  139.7622  166.7812 C.ar    1  UNL1        0.0053
     27 C         139.9038  140.6167  167.7698 C.ar    1  UNL1        0.0715
     28 C         140.4641  141.9417  167.3451 C.ar    1  UNL1        0.0053
     29 C         140.2882  142.4121  165.9317 C.ar    1  UNL1        0.0175
     30 C         140.0798  140.1463  169.1832 C.3     1  UNL1        0.4186
     31 F         140.2557  139.6759  170.5967 F       1  UNL1       -0.1659
     32 F         141.4007  139.5376  168.8162 F       1  UNL1       -0.1659
     33 F         138.7588  140.7549  169.5503 F       1  UNL1       -0.1659
@<TRIPOS>BOND
     1     7     8    2
     2     8     9   am
     3     9     1    1
     4     1     2    1
     5     2     3    1
     6     3     4    1
     7     4    18    1
     8    18    19    1
     9    19    20   ar
    10    20    21   ar
    11    21    22   ar
    12    22    24    1
    13    24    25   ar
    14    25    26   ar
    15    26    27   ar
    16    27    30    1
    17    30    31    1
    18    30    32    1
    19    30    33    1
    20    27    28   ar
    21    28    29   ar
    22    22    23   ar
    23     4     5    1
    24     5     6    1
    25     8    10   am
    26    10    11    1
    27    11    12    1
    28    12    13    1
    29    13    14    1
    30    13    15    1
    31     6     1    1
    32    15    10    1
    33    23    19   ar
    34    29    24   ar
    35     9    16    1
    36    14    17    1
@<TRIPOS>MOLECULE
*****
 33 36 0 0 0
SMALL
GASTEIGER

@<TRIPOS>ATOM
      1 C         138.7066  139.8561  165.2362 C.3     1  UNL1        0.0758
      2 C         139.0781  138.6263  164.4618 C.3     1  UNL1        0.0370
      3 C         138.7627  138.5381  162.9980 C.3     1  UNL1        0.0741
      4 N         138.0758  139.6795  162.3086 N.3     1  UNL1       -0.2688
      5 C         137.7043  140.9092  163.0830 C.3     1  UNL1        0.0741
      6 C         138.0197  140.9975  164.5468 C.3     1  UNL1        0.0370
      7 O         140.8015  141.7718  166.2064 O.2     1  UNL1       -0.2526
      8 C         140.0694  140.9022  167.1851 C.2     1  UNL1        0.3040
      9 N         139.0219  139.9444  166.7000 N.am    1  UNL1       -0.2903
     10 N         140.3847  140.9906  168.6490 N.am    1  UNL1       -0.2617
     11 C         139.7388  140.1888  169.7399 C.3     1  UNL1        0.0976
     12 C         140.3563  140.5988  171.0441 C.3     1  UNL1        0.0525
     13 C         141.3837  141.6540  170.7591 C.3     1  UNL1        0.1320
     14 O         142.2427  142.3455  171.7758 O.3     1  UNL1       -0.3827
     15 C         141.4013  141.8960  169.2789 C.3     1  UNL1        0.1241
     16 H         138.5414  139.3736  167.3424 H       1  UNL1        0.1509
     17 H         142.0341  142.0058  172.6601 H       1  UNL1        0.2104
     18 C         137.7604  139.5912  160.8448 C.3     1  UNL1        0.1007
     19 C         138.5622  140.3842  159.8557 C.ar    1  UNL1        0.0129
     20 C         139.8200  139.9314  159.1752 C.ar    1  UNL1        0.0176
     21 C         140.2821  141.0365  158.2723 C.ar    1  UNL1        0.0799
     22 N         139.3099  142.1723  158.3947 N.ar    1  UNL1       -0.3038
     23 C         138.2469  141.7691  159.3733 C.ar    1  UNL1        0.0772
     24 C         139.3871  143.4813  157.6665 C.ar    1  UNL1        0.0640
     25 C         140.1462  144.6286  158.2644 C.ar    1  UNL1        0.0175
     26 C         140.2234  145.9376  157.5361 C.ar    1  UNL1        0.0053
     27 C         139.5415  146.0994  156.2100 C.ar    1  UNL1        0.0715
     28 C         138.7824  144.9522  155.6120 C.ar    1  UNL1        0.0053
     29 C         138.7052  143.6432  156.3403 C.ar    1  UNL1        0.0175
     30 C         139.6187  147.4085  155.4817 C.3     1  UNL1        0.4186
     31 F         139.6959  148.7176  154.7535 F       1  UNL1       -0.1659
     32 F         140.3557  146.7404  154.3590 F       1  UNL1       -0.1659
     33 F         138.8817  148.0767  156.6045 F       1  UNL1       -0.1659
@<TRIPOS>BOND
     1     7     8    2
     2     8     9   am
     3     9     1    1
     4     1     2    1
     5     2     3    1
     6     3     4    1
     7     4    18    1
     8    18    19    1
     9    19    20   ar
    10    20    21   ar
    11    21    22   ar
    12    22    24    1
    13    24    25   ar
    14    25    26   ar
    15    26    27   ar
    16    27    30    1
    17    30    31    1
    18    30    32    1
    19    30    33    1
    20    27    28   ar
    21    28    29   ar
    22    22    23   ar
    23     4     5    1
    24     5     6    1
    25     8    10   am
    26    10    11    1
    27    11    12    1
    28    12    13    1
    29    13    14    1
    30    13    15    1
    31     6     1    1
    32    15    10    1
    33    23    19   ar
    34    29    24   ar
    35     9    16    1
    36    14    17    1
