@<TRIPOS>MOLECULE
*****
 34 38 0 0 0
SMALL
GASTEIGER

@<TRIPOS>ATOM
      1 N         139.9729  138.2535  163.8248 N.3     1  UNL1       -0.2712
      2 C         141.3489  137.6622  163.9089 C.3     1  UNL1        0.0738
      3 C         142.0070  138.1942  165.1474 C.3     1  UNL1        0.0372
      4 C         143.2642  138.1575  165.9649 C.3     1  UNL1        0.0245
      5 C         143.0720  139.0548  167.1514 C.3     1  UNL1        0.0909
      6 N         141.6959  139.6461  167.0673 N.pl3   1  UNL1       -0.3077
      7 C         141.0378  139.1141  165.8288 C.3     1  UNL1        0.0901
      8 C         139.7806  139.1508  165.0114 C.3     1  UNL1        0.0921
      9 C         141.0852  140.6015  168.0493 C.ar    1  UNL1        0.0517
     10 C         139.9957  140.1367  168.9696 C.ar    1  UNL1        0.0145
     11 C         139.3851  141.0922  169.9516 C.ar    1  UNL1        0.0013
     12 C         139.8639  142.5123  170.0133 C.ar    1  UNL1        0.0000
     13 C         140.9535  142.9771  169.0930 C.ar    1  UNL1        0.0051
     14 C         141.5641  142.0217  168.1110 C.ar    1  UNL1        0.0847
     15 C         142.6536  142.4864  167.1907 C.3     1  UNL1        0.4197
     16 F         143.7431  142.9512  166.2704 F       1  UNL1       -0.1658
     17 F         141.6525  142.6435  166.0848 F       1  UNL1       -0.1658
     18 F         143.6549  142.3294  168.2966 F       1  UNL1       -0.1658
     19 C         138.9659  137.9931  162.7440 C.3     1  UNL1        0.0731
     20 C         138.0058  139.0716  162.3379 C.3     1  UNL1        0.0294
     21 C         137.5423  139.1662  160.9144 C.3     1  UNL1        0.0666
     22 S         137.9932  140.3085  160.0531 S.3     1  UNL1       -0.0756
     23 C         141.0670  140.7001  161.0768 C.3     1  UNL1        0.1340
     24 N         139.9744  141.7248  161.1550 N.ar    1  UNL1       -0.2872
     25 C         138.5615  141.5448  160.6844 C.ar    1  UNL1        0.1933
     26 N         137.8167  142.8182  160.9560 N.ar    1  UNL1       -0.1221
     27 N         138.7692  143.7852  161.5944 N.ar    1  UNL1       -0.1267
     28 C         140.1028  143.1095  161.7174 C.ar    1  UNL1        0.1846
     29 C         141.3464  143.7126  162.3004 C.ar    1  UNL1        0.1171
     30 C         141.2445  144.7070  163.4188 C.ar    1  UNL1        0.0223
     31 C         142.4881  145.3100  164.0018 C.ar    1  UNL1        0.0032
     32 C         143.8335  144.9186  163.4663 C.ar    1  UNL1        0.0207
     33 C         143.9354  143.9243  162.3479 C.ar    1  UNL1        0.0989
     34 N         142.6917  143.3212  161.7649 N.ar    1  UNL1       -0.2407
@<TRIPOS>BOND
     1    23    24    1
     2    24    25   ar
     3    25    22    1
     4    22    21    1
     5    21    20    1
     6    20    19    1
     7    19     1    1
     8     1     2    1
     9     2     3    1
    10     3     4    1
    11     4     5    1
    12     5     6    1
    13     6     9    1
    14     9    10   ar
    15    10    11   ar
    16    11    12   ar
    17    12    13   ar
    18    13    14   ar
    19    14    15    1
    20    15    16    1
    21    15    17    1
    22    15    18    1
    23     6     7    1
    24     7     8    1
    25    25    26   ar
    26    26    27   ar
    27    27    28   ar
    28    28    29    1
    29    29    30   ar
    30    30    31   ar
    31    31    32   ar
    32    32    33   ar
    33    33    34   ar
    34    28    24   ar
    35    34    29   ar
    36     8     1    1
    37     7     3    1
    38    14     9   ar
@<TRIPOS>MOLECULE
*****
 34 38 0 0 0
SMALL
GASTEIGER

@<TRIPOS>ATOM
      1 N         138.1970  140.7947  162.4914 N.3     1  UNL1       -0.2712
      2 C         137.2169  141.7598  163.0898 C.3     1  UNL1        0.0738
      3 C         137.9882  142.7675  163.8895 C.3     1  UNL1        0.0372
      4 C         137.8592  143.9868  164.7536 C.3     1  UNL1        0.0245
      5 C         139.2362  144.3982  165.1835 C.3     1  UNL1        0.0909
      6 N         140.2162  143.4330  164.5850 N.pl3   1  UNL1       -0.3077
      7 C         139.4449  142.4253  163.7853 C.3     1  UNL1        0.0901
      8 C         139.5739  141.2060  162.9213 C.3     1  UNL1        0.0921
      9 C         141.7060  143.4693  164.7563 C.ar    1  UNL1        0.0517
     10 C         142.3382  142.8356  165.9598 C.ar    1  UNL1        0.0145
     11 C         143.8280  142.8719  166.1310 C.ar    1  UNL1        0.0013
     12 C         144.6855  143.5419  165.0987 C.ar    1  UNL1        0.0000
     13 C         144.0532  144.1757  163.8951 C.ar    1  UNL1        0.0051
     14 C         142.5635  144.1394  163.7239 C.ar    1  UNL1        0.0847
     15 C         141.9312  144.7731  162.5203 C.3     1  UNL1        0.4197
     16 F         141.2990  145.4069  161.3168 F       1  UNL1       -0.1658
     17 F         142.2181  143.5379  161.7192 F       1  UNL1       -0.1658
     18 F         141.6443  146.0084  163.3215 F       1  UNL1       -0.1658
     19 C         137.8593  139.6238  161.6167 C.3     1  UNL1        0.0731
     20 C         138.6261  138.3416  161.7509 C.3     1  UNL1        0.0294
     21 C         138.5454  137.5489  163.0218 C.3     1  UNL1        0.0666
     22 S         139.6052  137.7051  164.0717 S.3     1  UNL1       -0.0756
     23 C         141.5250  139.6356  165.8709 C.3     1  UNL1        0.1340
     24 N         140.1405  139.1854  166.2321 N.ar    1  UNL1       -0.2872
     25 C         139.2580  138.2981  165.4051 C.ar    1  UNL1        0.1933
     26 N         137.9675  138.1077  166.1456 N.ar    1  UNL1       -0.1221
     27 N         138.0523  138.8775  167.4303 N.ar    1  UNL1       -0.1267
     28 C         139.3953  139.5435  167.4838 C.ar    1  UNL1        0.1846
     29 C         139.9038  140.4147  168.5940 C.ar    1  UNL1        0.1171
     30 C         140.0797  141.8876  168.3710 C.ar    1  UNL1        0.0223
     31 C         140.5882  142.7588  169.4812 C.ar    1  UNL1        0.0032
     32 C         140.9208  142.1569  170.8144 C.ar    1  UNL1        0.0207
     33 C         140.7449  140.6841  171.0373 C.ar    1  UNL1        0.0989
     34 N         140.2364  139.8129  169.9271 N.ar    1  UNL1       -0.2407
@<TRIPOS>BOND
     1    23    24    1
     2    24    25   ar
     3    25    22    1
     4    22    21    1
     5    21    20    1
     6    20    19    1
     7    19     1    1
     8     1     2    1
     9     2     3    1
    10     3     4    1
    11     4     5    1
    12     5     6    1
    13     6     9    1
    14     9    10   ar
    15    10    11   ar
    16    11    12   ar
    17    12    13   ar
    18    13    14   ar
    19    14    15    1
    20    15    16    1
    21    15    17    1
    22    15    18    1
    23     6     7    1
    24     7     8    1
    25    25    26   ar
    26    26    27   ar
    27    27    28   ar
    28    28    29    1
    29    29    30   ar
    30    30    31   ar
    31    31    32   ar
    32    32    33   ar
    33    33    34   ar
    34    28    24   ar
    35    34    29   ar
    36     8     1    1
    37     7     3    1
    38    14     9   ar
@<TRIPOS>MOLECULE
*****
 34 38 0 0 0
SMALL
GASTEIGER

@<TRIPOS>ATOM
      1 N         140.4017  144.9128  161.4395 N.3     1  UNL1       -0.2712
      2 C         139.5626  145.2805  162.6272 C.3     1  UNL1        0.0738
      3 C         139.9427  144.3755  163.7614 C.3     1  UNL1        0.0372
      4 C         139.6590  144.0434  165.1964 C.3     1  UNL1        0.0245
      5 C         140.5577  142.9110  165.5966 C.3     1  UNL1        0.0909
      6 N         141.3969  142.5433  164.4088 N.pl3   1  UNL1       -0.3077
      7 C         141.0168  143.4483  163.2747 C.3     1  UNL1        0.0901
      8 C         141.3004  143.7804  161.8397 C.3     1  UNL1        0.0921
      9 C         142.4340  141.4605  164.3633 C.ar    1  UNL1        0.0517
     10 C         142.0338  140.0518  164.0389 C.ar    1  UNL1        0.0145
     11 C         143.0710  138.9691  163.9934 C.ar    1  UNL1        0.0013
     12 C         144.5083  139.2951  164.2722 C.ar    1  UNL1        0.0000
     13 C         144.9086  140.7039  164.5965 C.ar    1  UNL1        0.0051
     14 C         143.8714  141.7866  164.6421 C.ar    1  UNL1        0.0847
     15 C         144.2716  143.1954  164.9664 C.3     1  UNL1        0.4197
     16 F         144.6718  144.6041  165.2907 F       1  UNL1       -0.1658
     17 F         144.0096  142.9351  166.4202 F       1  UNL1       -0.1658
     18 F         144.5336  143.4557  163.5125 F       1  UNL1       -0.1658
     19 C         140.3510  145.5632  160.0888 C.3     1  UNL1        0.0731
     20 C         140.5926  144.7469  158.8538 C.3     1  UNL1        0.0294
     21 C         139.4953  143.8910  158.2939 C.3     1  UNL1        0.0666
     22 S         139.3745  142.4563  158.7145 S.3     1  UNL1       -0.0756
     23 C         140.2729  139.9380  160.5855 C.3     1  UNL1        0.1340
     24 N         139.2252  140.9573  160.9226 N.ar    1  UNL1       -0.2872
     25 C         138.8123  142.1148  160.0625 C.ar    1  UNL1        0.1933
     26 N         137.7384  142.8709  160.7872 N.ar    1  UNL1       -0.1221
     27 N         137.4876  142.1806  162.0952 N.ar    1  UNL1       -0.1267
     28 C         138.4065  140.9979  162.1789 C.ar    1  UNL1        0.1846
     29 C         138.4917  140.0265  163.3187 C.ar    1  UNL1        0.1171
     30 C         138.1974  140.4831  164.7168 C.ar    1  UNL1        0.0223
     31 C         138.2827  139.5117  165.8566 C.ar    1  UNL1        0.0032
     32 C         138.6622  138.0836  165.5981 C.ar    1  UNL1        0.0207
     33 C         138.9565  137.6271  164.1999 C.ar    1  UNL1        0.0989
     34 N         138.8712  138.5986  163.0602 N.ar    1  UNL1       -0.2407
@<TRIPOS>BOND
     1    23    24    1
     2    24    25   ar
     3    25    22    1
     4    22    21    1
     5    21    20    1
     6    20    19    1
     7    19     1    1
     8     1     2    1
     9     2     3    1
    10     3     4    1
    11     4     5    1
    12     5     6    1
    13     6     9    1
    14     9    10   ar
    15    10    11   ar
    16    11    12   ar
    17    12    13   ar
    18    13    14   ar
    19    14    15    1
    20    15    16    1
    21    15    17    1
    22    15    18    1
    23     6     7    1
    24     7     8    1
    25    25    26   ar
    26    26    27   ar
    27    27    28   ar
    28    28    29    1
    29    29    30   ar
    30    30    31   ar
    31    31    32   ar
    32    32    33   ar
    33    33    34   ar
    34    28    24   ar
    35    34    29   ar
    36     8     1    1
    37     7     3    1
    38    14     9   ar
@<TRIPOS>MOLECULE
*****
 34 38 0 0 0
SMALL
GASTEIGER

@<TRIPOS>ATOM
      1 N         141.1264  144.8140  163.0848 N.3     1  UNL1       -0.2712
      2 C         142.5900  144.5703  162.8648 C.3     1  UNL1        0.0738
      3 C         143.0800  143.6713  163.9610 C.3     1  UNL1        0.0372
      4 C         144.2875  142.9651  164.5025 C.3     1  UNL1        0.0245
      5 C         143.8731  142.2167  165.7348 C.3     1  UNL1        0.0909
      6 N         142.4094  142.4605  165.9547 N.pl3   1  UNL1       -0.3077
      7 C         141.9193  143.3595  164.8585 C.3     1  UNL1        0.0901
      8 C         140.7119  144.0657  164.3170 C.3     1  UNL1        0.0921
      9 C         141.5813  141.9032  167.0744 C.ar    1  UNL1        0.0517
     10 C         140.7964  142.8265  167.9583 C.ar    1  UNL1        0.0145
     11 C         139.9682  142.2692  169.0779 C.ar    1  UNL1        0.0013
     12 C         139.9250  140.7885  169.3136 C.ar    1  UNL1        0.0000
     13 C         140.7099  139.8651  168.4297 C.ar    1  UNL1        0.0051
     14 C         141.5380  140.4224  167.3101 C.ar    1  UNL1        0.0847
     15 C         142.3229  139.4990  166.4262 C.3     1  UNL1        0.4197
     16 F         143.1078  138.5757  165.5423 F       1  UNL1       -0.1658
     17 F         141.3278  139.7086  165.3236 F       1  UNL1       -0.1658
     18 F         143.3182  139.2895  167.5288 F       1  UNL1       -0.1658
     19 C         140.2339  145.6579  162.2238 C.3     1  UNL1        0.0731
     20 C         140.5051  145.7776  160.7534 C.3     1  UNL1        0.0294
     21 C         139.9559  144.7546  159.8037 C.3     1  UNL1        0.0666
     22 S         140.1848  143.2945  160.0595 S.3     1  UNL1       -0.0756
     23 C         141.1321  140.9404  162.1115 C.3     1  UNL1        0.1340
     24 N         139.7373  141.4719  161.9629 N.ar    1  UNL1       -0.2872
     25 C         139.3019  142.5539  161.0197 C.ar    1  UNL1        0.1933
     26 N         137.8285  142.7654  161.2053 N.ar    1  UNL1       -0.1221
     27 N         137.3533  141.8141  162.2632 N.ar    1  UNL1       -0.1267
     28 C         138.5330  141.0146  162.7315 C.ar    1  UNL1        0.1846
     29 C         138.5121  139.9456  163.7835 C.ar    1  UNL1        0.1171
     30 C         138.0774  140.2766  165.1805 C.ar    1  UNL1        0.0223
     31 C         138.0565  139.2076  166.2326 C.ar    1  UNL1        0.0032
     32 C         138.4702  137.8076  165.8875 C.ar    1  UNL1        0.0207
     33 C         138.9048  137.4766  164.4905 C.ar    1  UNL1        0.0989
     34 N         138.9258  138.5457  163.4385 N.ar    1  UNL1       -0.2407
@<TRIPOS>BOND
     1    23    24    1
     2    24    25   ar
     3    25    22    1
     4    22    21    1
     5    21    20    1
     6    20    19    1
     7    19     1    1
     8     1     2    1
     9     2     3    1
    10     3     4    1
    11     4     5    1
    12     5     6    1
    13     6     9    1
    14     9    10   ar
    15    10    11   ar
    16    11    12   ar
    17    12    13   ar
    18    13    14   ar
    19    14    15    1
    20    15    16    1
    21    15    17    1
    22    15    18    1
    23     6     7    1
    24     7     8    1
    25    25    26   ar
    26    26    27   ar
    27    27    28   ar
    28    28    29    1
    29    29    30   ar
    30    30    31   ar
    31    31    32   ar
    32    32    33   ar
    33    33    34   ar
    34    28    24   ar
    35    34    29   ar
    36     8     1    1
    37     7     3    1
    38    14     9   ar
@<TRIPOS>MOLECULE
*****
 34 38 0 0 0
SMALL
GASTEIGER

@<TRIPOS>ATOM
      1 N         141.8729  143.3461  162.3291 N.3     1  UNL1       -0.2712
      2 C         140.6807  144.0490  161.7508 C.3     1  UNL1        0.0738
      3 C         139.4548  143.2742  162.1340 C.3     1  UNL1        0.0372
      4 C         137.9603  143.2297  162.0134 C.3     1  UNL1        0.0245
      5 C         137.4712  142.0204  162.7540 C.3     1  UNL1        0.0909
      6 N         138.6636  141.3175  163.3323 N.pl3   1  UNL1       -0.3077
      7 C         139.8894  142.0923  162.9491 C.3     1  UNL1        0.0901
      8 C         141.3839  142.1368  163.0697 C.3     1  UNL1        0.0921
      9 C         138.6350  140.0604  164.1502 C.ar    1  UNL1        0.0517
     10 C         138.3662  140.1306  165.6242 C.ar    1  UNL1        0.0145
     11 C         138.3376  138.8735  166.4421 C.ar    1  UNL1        0.0013
     12 C         138.5778  137.5462  165.7860 C.ar    1  UNL1        0.0000
     13 C         138.8465  137.4760  164.3119 C.ar    1  UNL1        0.0051
     14 C         138.8752  138.7331  163.4940 C.ar    1  UNL1        0.0847
     15 C         139.1439  138.6628  162.0200 C.3     1  UNL1        0.4197
     16 F         139.4127  138.5926  160.5459 F       1  UNL1       -0.1658
     17 F         137.6696  138.5859  161.7548 F       1  UNL1       -0.1658
     18 F         140.6184  138.7398  162.2851 F       1  UNL1       -0.1658
     19 C         143.3031  143.7768  162.1910 C.3     1  UNL1        0.0731
     20 C         144.2413  142.9943  161.3208 C.3     1  UNL1        0.0294
     21 C         144.8663  141.7320  161.8366 C.3     1  UNL1        0.0666
     22 S         145.4303  141.6877  163.2258 S.3     1  UNL1       -0.0756
     23 C         144.4711  143.7792  165.5400 C.3     1  UNL1        0.1340
     24 N         144.0965  142.3294  165.4516 N.ar    1  UNL1       -0.2872
     25 C         144.5374  141.3681  164.3879 C.ar    1  UNL1        0.1933
     26 N         143.9286  140.0309  164.6903 N.ar    1  UNL1       -0.1221
     27 N         143.1114  140.1659  165.9409 N.ar    1  UNL1       -0.1267
     28 C         143.2152  141.5864  166.4115 C.ar    1  UNL1        0.1846
     29 C         142.5537  142.1627  167.6282 C.ar    1  UNL1        0.1171
     30 C         141.0847  142.4655  167.6109 C.ar    1  UNL1        0.0223
     31 C         140.4233  143.0418  168.8276 C.ar    1  UNL1        0.0032
     32 C         141.2310  143.3153  170.0617 C.ar    1  UNL1        0.0207
     33 C         142.7000  143.0125  170.0790 C.ar    1  UNL1        0.0989
     34 N         143.3614  142.4362  168.8622 N.ar    1  UNL1       -0.2407
@<TRIPOS>BOND
     1    23    24    1
     2    24    25   ar
     3    25    22    1
     4    22    21    1
     5    21    20    1
     6    20    19    1
     7    19     1    1
     8     1     2    1
     9     2     3    1
    10     3     4    1
    11     4     5    1
    12     5     6    1
    13     6     9    1
    14     9    10   ar
    15    10    11   ar
    16    11    12   ar
    17    12    13   ar
    18    13    14   ar
    19    14    15    1
    20    15    16    1
    21    15    17    1
    22    15    18    1
    23     6     7    1
    24     7     8    1
    25    25    26   ar
    26    26    27   ar
    27    27    28   ar
    28    28    29    1
    29    29    30   ar
    30    30    31   ar
    31    31    32   ar
    32    32    33   ar
    33    33    34   ar
    34    28    24   ar
    35    34    29   ar
    36     8     1    1
    37     7     3    1
    38    14     9   ar
@<TRIPOS>MOLECULE
*****
 34 38 0 0 0
SMALL
GASTEIGER

@<TRIPOS>ATOM
      1 N         143.7199  140.1328  162.6572 N.3     1  UNL1       -0.2712
      2 C         144.7431  141.1914  162.3700 C.3     1  UNL1        0.0738
      3 C         144.0851  142.5291  162.5358 C.3     1  UNL1        0.0372
      4 C         144.3108  144.0102  162.4609 C.3     1  UNL1        0.0245
      5 C         143.0204  144.6937  162.8042 C.3     1  UNL1        0.0909
      6 N         141.9972  143.6350  163.0915 N.pl3   1  UNL1       -0.3077
      7 C         142.6552  142.2973  162.9256 C.3     1  UNL1        0.0901
      8 C         142.4296  140.8163  163.0005 C.3     1  UNL1        0.0921
      9 C         140.5672  143.8725  163.4769 C.ar    1  UNL1        0.0517
     10 C         140.2239  144.2559  164.8858 C.ar    1  UNL1        0.0145
     11 C         138.7938  144.4934  165.2712 C.ar    1  UNL1        0.0013
     12 C         137.7070  144.3473  164.2477 C.ar    1  UNL1        0.0000
     13 C         138.0503  143.9638  162.8387 C.ar    1  UNL1        0.0051
     14 C         139.4804  143.7264  162.4533 C.ar    1  UNL1        0.0847
     15 C         139.8237  143.3430  161.0444 C.3     1  UNL1        0.4197
     16 F         140.1670  142.9595  159.6355 F       1  UNL1       -0.1658
     17 F         139.6816  141.8937  161.4042 F       1  UNL1       -0.1658
     18 F         139.9658  144.7922  160.6845 F       1  UNL1       -0.1658
     19 C         143.9472  138.6509  162.6094 C.3     1  UNL1        0.0731
     20 C         142.9904  137.7691  161.8631 C.3     1  UNL1        0.0294
     21 C         141.5162  137.8764  162.1187 C.3     1  UNL1        0.0666
     22 S         140.9144  137.2189  163.3252 S.3     1  UNL1       -0.0756
     23 C         142.1572  138.7845  165.9047 C.3     1  UNL1        0.1340
     24 N         140.7123  138.7557  165.5029 N.ar    1  UNL1       -0.2872
     25 C         140.1411  138.0361  164.3172 C.ar    1  UNL1        0.1933
     26 N         138.6607  138.2772  164.2977 N.ar    1  UNL1       -0.1221
     27 N         138.3170  139.1458  165.4713 N.ar    1  UNL1       -0.1267
     28 C         139.5850  139.4416  166.2162 C.ar    1  UNL1        0.1846
     29 C         139.7046  140.2766  167.4565 C.ar    1  UNL1        0.1171
     30 C         140.3418  141.6328  167.3891 C.ar    1  UNL1        0.0223
     31 C         140.4614  142.4678  168.6295 C.ar    1  UNL1        0.0032
     32 C         139.9437  141.9465  169.9373 C.ar    1  UNL1        0.0207
     33 C         139.3065  140.5903  170.0047 C.ar    1  UNL1        0.0989
     34 N         139.1869  139.7553  168.7643 N.ar    1  UNL1       -0.2407
@<TRIPOS>BOND
     1    23    24    1
     2    24    25   ar
     3    25    22    1
     4    22    21    1
     5    21    20    1
     6    20    19    1
     7    19     1    1
     8     1     2    1
     9     2     3    1
    10     3     4    1
    11     4     5    1
    12     5     6    1
    13     6     9    1
    14     9    10   ar
    15    10    11   ar
    16    11    12   ar
    17    12    13   ar
    18    13    14   ar
    19    14    15    1
    20    15    16    1
    21    15    17    1
    22    15    18    1
    23     6     7    1
    24     7     8    1
    25    25    26   ar
    26    26    27   ar
    27    27    28   ar
    28    28    29    1
    29    29    30   ar
    30    30    31   ar
    31    31    32   ar
    32    32    33   ar
    33    33    34   ar
    34    28    24   ar
    35    34    29   ar
    36     8     1    1
    37     7     3    1
    38    14     9   ar
@<TRIPOS>MOLECULE
*****
 34 38 0 0 0
SMALL
GASTEIGER

@<TRIPOS>ATOM
      1 N         140.9944  139.2640  160.9564 N.3     1  UNL1       -0.2712
      2 C         141.8425  139.3308  159.7210 C.3     1  UNL1        0.0738
      3 C         142.8587  140.4170  159.9147 C.3     1  UNL1        0.0372
      4 C         144.0110  141.1296  159.2709 C.3     1  UNL1        0.0245
      5 C         144.5031  142.1745  160.2281 C.3     1  UNL1        0.0909
      6 N         143.6549  142.1076  161.4635 N.pl3   1  UNL1       -0.3077
      7 C         142.6387  141.0214  161.2698 C.3     1  UNL1        0.0901
      8 C         141.4864  140.3088  161.9136 C.3     1  UNL1        0.0921
      9 C         143.7979  142.9746  162.6792 C.ar    1  UNL1        0.0517
     10 C         143.3003  144.3894  162.6540 C.ar    1  UNL1        0.0145
     11 C         143.4433  145.2565  163.8697 C.ar    1  UNL1        0.0013
     12 C         144.0839  144.7087  165.1105 C.ar    1  UNL1        0.0000
     13 C         144.5815  143.2938  165.1356 C.ar    1  UNL1        0.0051
     14 C         144.4385  142.4268  163.9200 C.ar    1  UNL1        0.0847
     15 C         144.9361  141.0120  163.9452 C.3     1  UNL1        0.4197
     16 F         145.4337  139.5972  163.9703 F       1  UNL1       -0.1658
     17 F         146.2663  141.4706  163.4253 F       1  UNL1       -0.1658
     18 F         143.6059  140.5533  164.4650 F       1  UNL1       -0.1658
     19 C         139.8543  138.3183  161.1931 C.3     1  UNL1        0.0731
     20 C         139.0589  138.4052  162.4618 C.3     1  UNL1        0.0294
     21 C         137.8997  139.3525  162.5570 C.3     1  UNL1        0.0666
     22 S         137.9980  140.5734  163.4228 S.3     1  UNL1       -0.0756
     23 C         140.1588  142.6039  164.7856 C.3     1  UNL1        0.1340
     24 N         139.5487  141.3986  165.4376 N.ar    1  UNL1       -0.2872
     25 C         138.5555  140.4653  164.8111 C.ar    1  UNL1        0.1933
     26 N         138.2175  139.4049  165.8168 N.ar    1  UNL1       -0.1221
     27 N         139.0019  139.6828  167.0648 N.ar    1  UNL1       -0.1267
     28 C         139.8246  140.9150  166.8305 C.ar    1  UNL1        0.1846
     29 C         140.7592  141.5518  167.8160 C.ar    1  UNL1        0.1171
     30 C         142.2238  141.6475  167.5068 C.ar    1  UNL1        0.0223
     31 C         143.1584  142.2842  168.4923 C.ar    1  UNL1        0.0032
     32 C         142.6281  142.8253  169.7870 C.ar    1  UNL1        0.0207
     33 C         141.1634  142.7297  170.0961 C.ar    1  UNL1        0.0989
     34 N         140.2290  142.0929  169.1106 N.ar    1  UNL1       -0.2407
@<TRIPOS>BOND
     1    23    24    1
     2    24    25   ar
     3    25    22    1
     4    22    21    1
     5    21    20    1
     6    20    19    1
     7    19     1    1
     8     1     2    1
     9     2     3    1
    10     3     4    1
    11     4     5    1
    12     5     6    1
    13     6     9    1
    14     9    10   ar
    15    10    11   ar
    16    11    12   ar
    17    12    13   ar
    18    13    14   ar
    19    14    15    1
    20    15    16    1
    21    15    17    1
    22    15    18    1
    23     6     7    1
    24     7     8    1
    25    25    26   ar
    26    26    27   ar
    27    27    28   ar
    28    28    29    1
    29    29    30   ar
    30    30    31   ar
    31    31    32   ar
    32    32    33   ar
    33    33    34   ar
    34    28    24   ar
    35    34    29   ar
    36     8     1    1
    37     7     3    1
    38    14     9   ar
@<TRIPOS>MOLECULE
*****
 34 38 0 0 0
SMALL
GASTEIGER

@<TRIPOS>ATOM
      1 N         142.5730  138.2687  163.0301 N.3     1  UNL1       -0.2712
      2 C         141.1081  137.9462  163.0349 C.3     1  UNL1        0.0738
      3 C         140.5296  138.4372  164.3288 C.3     1  UNL1        0.0372
      4 C         139.2667  138.5413  165.1315 C.3     1  UNL1        0.0245
      5 C         139.5936  139.2316  166.4225 C.3     1  UNL1        0.0909
      6 N         141.0586  139.5541  166.4177 N.pl3   1  UNL1       -0.3077
      7 C         141.6370  139.0631  165.1237 C.3     1  UNL1        0.0901
      8 C         142.8999  138.9590  164.3210 C.3     1  UNL1        0.0921
      9 C         141.8126  140.2461  167.5143 C.ar    1  UNL1        0.0517
     10 C         142.1888  139.4938  168.7562 C.ar    1  UNL1        0.0145
     11 C         142.9429  140.1858  169.8528 C.ar    1  UNL1        0.0013
     12 C         143.3207  141.6301  169.7075 C.ar    1  UNL1        0.0000
     13 C         142.9445  142.3825  168.4655 C.ar    1  UNL1        0.0051
     14 C         142.1905  141.6905  167.3689 C.ar    1  UNL1        0.0847
     15 C         141.8143  142.4428  166.1269 C.3     1  UNL1        0.4197
     16 F         141.4381  143.1951  164.8850 F       1  UNL1       -0.1658
     17 F         143.1283  142.0734  165.5051 F       1  UNL1       -0.1658
     18 F         140.5001  142.8123  166.7488 F       1  UNL1       -0.1658
     19 C         143.5410  137.9559  161.9278 C.3     1  UNL1        0.0731
     20 C         143.5197  138.7582  160.6607 C.3     1  UNL1        0.0294
     21 C         142.7189  138.2824  159.4849 C.3     1  UNL1        0.0666
     22 S         141.6300  139.1456  158.9203 S.3     1  UNL1       -0.0756
     23 C         141.5704  141.8457  160.7521 C.3     1  UNL1        0.1340
     24 N         140.4696  140.8332  160.6379 N.ar    1  UNL1       -0.2872
     25 C         140.4970  139.5922  159.7960 C.ar    1  UNL1        0.1933
     26 N         139.1924  138.8759  159.9834 N.ar    1  UNL1       -0.1221
     27 N         138.3587  139.6744  160.9413 N.ar    1  UNL1       -0.1267
     28 C         139.1480  140.8841  161.3458 C.ar    1  UNL1        0.1846
     29 C         138.6953  141.9564  162.2921 C.ar    1  UNL1        0.1171
     30 C         138.5057  141.6420  163.7464 C.ar    1  UNL1        0.0223
     31 C         138.0530  142.7143  164.6927 C.ar    1  UNL1        0.0032
     32 C         137.7899  144.1009  164.1844 C.ar    1  UNL1        0.0207
     33 C         137.9796  144.4152  162.7300 C.ar    1  UNL1        0.0989
     34 N         138.4323  143.3429  161.7839 N.ar    1  UNL1       -0.2407
@<TRIPOS>BOND
     1    23    24    1
     2    24    25   ar
     3    25    22    1
     4    22    21    1
     5    21    20    1
     6    20    19    1
     7    19     1    1
     8     1     2    1
     9     2     3    1
    10     3     4    1
    11     4     5    1
    12     5     6    1
    13     6     9    1
    14     9    10   ar
    15    10    11   ar
    16    11    12   ar
    17    12    13   ar
    18    13    14   ar
    19    14    15    1
    20    15    16    1
    21    15    17    1
    22    15    18    1
    23     6     7    1
    24     7     8    1
    25    25    26   ar
    26    26    27   ar
    27    27    28   ar
    28    28    29    1
    29    29    30   ar
    30    30    31   ar
    31    31    32   ar
    32    32    33   ar
    33    33    34   ar
    34    28    24   ar
    35    34    29   ar
    36     8     1    1
    37     7     3    1
    38    14     9   ar
@<TRIPOS>MOLECULE
*****
 34 38 0 0 0
SMALL
GASTEIGER

@<TRIPOS>ATOM
      1 N         138.6298  143.3391  163.9998 N.3     1  UNL1       -0.2712
      2 C         137.9280  142.0140  163.9622 C.3     1  UNL1        0.0738
      3 C         138.4959  141.1576  165.0550 C.3     1  UNL1        0.0372
      4 C         138.4131  139.8093  165.7071 C.3     1  UNL1        0.0245
      5 C         139.4148  139.7718  166.8231 C.3     1  UNL1        0.0909
      6 N         140.1166  141.0971  166.8606 N.pl3   1  UNL1       -0.3077
      7 C         139.5487  141.9535  165.7679 C.3     1  UNL1        0.0901
      8 C         139.6314  143.3017  165.1158 C.3     1  UNL1        0.0921
      9 C         141.1967  141.4958  167.8221 C.ar    1  UNL1        0.0517
     10 C         142.5056  142.0159  167.3061 C.ar    1  UNL1        0.0145
     11 C         143.5856  142.4146  168.2676 C.ar    1  UNL1        0.0013
     12 C         143.3568  142.2933  169.7451 C.ar    1  UNL1        0.0000
     13 C         142.0478  141.7732  170.2611 C.ar    1  UNL1        0.0051
     14 C         140.9678  141.3745  169.2996 C.ar    1  UNL1        0.0847
     15 C         139.6589  140.8544  169.8156 C.3     1  UNL1        0.4197
     16 F         138.3500  140.3344  170.3315 F       1  UNL1       -0.1658
     17 F         140.1708  139.4494  169.6980 F       1  UNL1       -0.1658
     18 F         139.1469  142.2595  169.9332 F       1  UNL1       -0.1658
     19 C         138.3748  144.4982  163.0825 C.3     1  UNL1        0.0731
     20 C         139.4975  145.4200  162.7087 C.3     1  UNL1        0.0294
     21 C         140.0106  145.4441  161.2993 C.3     1  UNL1        0.0666
     22 S         141.1843  144.5935  160.9138 S.3     1  UNL1       -0.0756
     23 C         139.9803  141.5640  161.0626 C.3     1  UNL1        0.1340
     24 N         141.0995  142.1099  161.8987 N.ar    1  UNL1       -0.2872
     25 C         141.6530  143.5024  161.8304 C.ar    1  UNL1        0.1933
     26 N         142.7574  143.6124  162.8394 N.ar    1  UNL1       -0.1221
     27 N         142.8865  142.2878  163.5315 N.ar    1  UNL1       -0.1267
     28 C         141.8619  141.3592  162.9501 C.ar    1  UNL1        0.1846
     29 C         141.6389  139.9308  163.3499 C.ar    1  UNL1        0.1171
     30 C         140.8235  139.0256  162.4748 C.ar    1  UNL1        0.0223
     31 C         140.6005  137.5971  162.8746 C.ar    1  UNL1        0.0032
     32 C         141.1928  137.0740  164.1496 C.ar    1  UNL1        0.0207
     33 C         142.0082  137.9792  165.0247 C.ar    1  UNL1        0.0989
     34 N         142.2312  139.4076  164.6248 N.ar    1  UNL1       -0.2407
@<TRIPOS>BOND
     1    23    24    1
     2    24    25   ar
     3    25    22    1
     4    22    21    1
     5    21    20    1
     6    20    19    1
     7    19     1    1
     8     1     2    1
     9     2     3    1
    10     3     4    1
    11     4     5    1
    12     5     6    1
    13     6     9    1
    14     9    10   ar
    15    10    11   ar
    16    11    12   ar
    17    12    13   ar
    18    13    14   ar
    19    14    15    1
    20    15    16    1
    21    15    17    1
    22    15    18    1
    23     6     7    1
    24     7     8    1
    25    25    26   ar
    26    26    27   ar
    27    27    28   ar
    28    28    29    1
    29    29    30   ar
    30    30    31   ar
    31    31    32   ar
    32    32    33   ar
    33    33    34   ar
    34    28    24   ar
    35    34    29   ar
    36     8     1    1
    37     7     3    1
    38    14     9   ar
