@<TRIPOS>MOLECULE
*****
 29 32 0 0 0
SMALL
GASTEIGER

@<TRIPOS>ATOM
      1 C         140.4865  139.3107  163.4642 C.ar    1  UNL1       -0.0003
      2 C         139.2237  139.5699  162.6974 C.ar    1  UNL1        0.0001
      3 C         139.1736  139.3018  161.2224 C.ar    1  UNL1        0.0042
      4 C         140.3862  138.7745  160.5143 C.ar    1  UNL1        0.0497
      5 C         141.6490  138.5153  161.2812 C.ar    1  UNL1       -0.0161
      6 C         141.6992  138.7835  162.7561 C.ar    1  UNL1       -0.0041
      7 C         142.8617  137.9880  160.5731 C.3     1  UNL1        0.0480
      8 C         142.8116  137.7199  159.0981 C.3     1  UNL1        0.0984
      9 N         141.5487  137.9791  158.3312 N.am    1  UNL1       -0.2743
     10 C         140.3360  138.5064  159.0393 C.2     1  UNL1        0.2488
     11 O         139.0732  138.7655  158.2724 O.2     1  UNL1       -0.2699
     12 C         140.6371  140.1151  167.8892 C.ar    1  UNL1        0.0536
     13 C         139.3166  139.9029  167.2101 C.ar    1  UNL1        0.0045
     14 C         139.2664  139.6348  165.7350 C.ar    1  UNL1        0.0001
     15 C         140.5367  139.5789  164.9393 C.ar    1  UNL1       -0.0000
     16 C         141.8572  139.7911  165.6184 C.ar    1  UNL1        0.0001
     17 C         141.9074  140.0592  167.0934 C.ar    1  UNL1        0.0045
     18 C         140.7155  142.0630  171.3461 C.3     1  UNL1        0.1152
     19 N         140.6652  141.7948  169.8710 N.am    1  UNL1       -0.2726
     20 C         140.5929  142.9383  168.9029 C.3     1  UNL1        0.1152
     21 C         140.6873  140.3832  169.3642 C.2     1  UNL1        0.2491
     22 O         140.7596  139.2398  170.3323 O.2     1  UNL1       -0.2699
     23 C         141.4986  137.7109  156.8562 C.3     1  UNL1        0.1110
     24 C         142.5572  136.8665  156.2110 C.3     1  UNL1        0.0939
     25 N         142.3728  135.3813  156.1089 N.3     1  UNL1       -0.2712
     26 C         141.3679  134.6748  155.2481 C.3     1  UNL1        0.0722
     27 C         141.5350  133.1987  155.4569 C.3     1  UNL1        0.0188
     28 C         142.6433  132.9931  156.4466 C.3     1  UNL1        0.0188
     29 C         143.1611  134.3420  156.8495 C.3     1  UNL1        0.0722
@<TRIPOS>BOND
     1    18    19    1
     2    19    20    1
     3    19    21   am
     4    21    22    2
     5    21    12    1
     6    12    13   ar
     7    13    14   ar
     8    14    15   ar
     9    15     1    1
    10     1     2   ar
    11     2     3   ar
    12     3     4   ar
    13     4     5   ar
    14     5     6   ar
    15     5     7    1
    16     7     8    1
    17     8     9    1
    18     9    23    1
    19    23    24    1
    20    24    25    1
    21    25    26    1
    22    26    27    1
    23    27    28    1
    24    28    29    1
    25     9    10   am
    26    10    11    2
    27    15    16   ar
    28    16    17   ar
    29    17    12   ar
    30     6     1   ar
    31    29    25    1
    32    10     4    1
@<TRIPOS>MOLECULE
*****
 29 32 0 0 0
SMALL
GASTEIGER

@<TRIPOS>ATOM
      1 C         139.4624  140.1128  163.3862 C.ar    1  UNL1       -0.0003
      2 C         138.3835  140.1620  164.4272 C.ar    1  UNL1        0.0001
      3 C         138.7338  140.0114  165.8779 C.ar    1  UNL1        0.0042
      4 C         140.1628  139.8116  166.2876 C.ar    1  UNL1        0.0497
      5 C         141.2416  139.7624  165.2466 C.ar    1  UNL1       -0.0161
      6 C         140.8914  139.9130  163.7959 C.ar    1  UNL1       -0.0041
      7 C         142.6707  139.5626  165.6564 C.3     1  UNL1        0.0480
      8 C         143.0209  139.4121  167.1071 C.3     1  UNL1        0.0984
      9 N         141.9421  139.4613  168.1482 N.am    1  UNL1       -0.2743
     10 C         140.5130  139.6611  167.7384 C.2     1  UNL1        0.2488
     11 O         139.4342  139.7103  168.7794 O.2     1  UNL1       -0.2699
     12 C         138.4118  140.5644  159.0338 C.ar    1  UNL1        0.0536
     13 C         138.2837  141.7359  159.9618 C.ar    1  UNL1        0.0045
     14 C         138.6339  141.5854  161.4126 C.ar    1  UNL1        0.0001
     15 C         139.1122  140.2633  161.9354 C.ar    1  UNL1       -0.0000
     16 C         139.2403  139.0918  161.0074 C.ar    1  UNL1        0.0001
     17 C         138.8901  139.2423  159.5567 C.ar    1  UNL1        0.0045
     18 C         138.7735  141.2321  155.1386 C.3     1  UNL1        0.1152
     19 N         139.1237  141.0816  156.5894 N.am    1  UNL1       -0.2726
     20 C         140.5359  141.2978  157.0464 C.3     1  UNL1        0.1152
     21 C         138.0616  140.7149  157.5831 C.2     1  UNL1        0.2491
     22 O         136.6494  140.4987  157.1261 O.2     1  UNL1       -0.2699
     23 C         142.2923  139.3107  169.5989 C.3     1  UNL1        0.1110
     24 C         142.5465  140.5270  170.4392 C.3     1  UNL1        0.0939
     25 N         141.6087  141.6957  170.3700 N.3     1  UNL1       -0.2712
     26 C         140.4105  141.9176  171.2447 C.3     1  UNL1        0.0722
     27 C         139.7658  143.2068  170.8293 C.3     1  UNL1        0.0188
     28 C         140.5655  143.7815  169.6978 C.3     1  UNL1        0.0188
     29 C         141.7045  142.8476  169.4140 C.3     1  UNL1        0.0722
@<TRIPOS>BOND
     1    18    19    1
     2    19    20    1
     3    19    21   am
     4    21    22    2
     5    21    12    1
     6    12    13   ar
     7    13    14   ar
     8    14    15   ar
     9    15     1    1
    10     1     2   ar
    11     2     3   ar
    12     3     4   ar
    13     4     5   ar
    14     5     6   ar
    15     5     7    1
    16     7     8    1
    17     8     9    1
    18     9    23    1
    19    23    24    1
    20    24    25    1
    21    25    26    1
    22    26    27    1
    23    27    28    1
    24    28    29    1
    25     9    10   am
    26    10    11    2
    27    15    16   ar
    28    16    17   ar
    29    17    12   ar
    30     6     1   ar
    31    29    25    1
    32    10     4    1
@<TRIPOS>MOLECULE
*****
 29 32 0 0 0
SMALL
GASTEIGER

@<TRIPOS>ATOM
      1 C         143.2492  140.2230  163.1533 C.ar    1  UNL1       -0.0003
      2 C         142.9581  138.9556  162.4058 C.ar    1  UNL1        0.0001
      3 C         143.1810  138.8909  160.9239 C.ar    1  UNL1        0.0042
      4 C         143.6950  140.0937  160.1895 C.ar    1  UNL1        0.0497
      5 C         143.9861  141.3611  160.9371 C.ar    1  UNL1       -0.0161
      6 C         143.7632  141.4258  162.4190 C.ar    1  UNL1       -0.0041
      7 C         144.5000  142.5638  160.2028 C.3     1  UNL1        0.0480
      8 C         144.7229  142.4992  158.7209 C.3     1  UNL1        0.0984
      9 N         144.4319  141.2317  157.9732 N.am    1  UNL1       -0.2743
     10 C         143.9179  140.0290  158.7076 C.2     1  UNL1        0.2488
     11 O         143.6268  138.7615  157.9600 O.2     1  UNL1       -0.2699
     12 C         142.5805  140.4171  167.5992 C.ar    1  UNL1        0.0536
     13 C         142.6079  141.6793  166.7891 C.ar    1  UNL1        0.0045
     14 C         142.8308  141.6145  165.3071 C.ar    1  UNL1        0.0001
     15 C         143.0263  140.2877  164.6353 C.ar    1  UNL1       -0.0000
     16 C         142.9989  139.0256  165.4454 C.ar    1  UNL1        0.0001
     17 C         142.7760  139.0903  166.9273 C.ar    1  UNL1        0.0045
     18 C         140.7413  140.4876  171.1152 C.3     1  UNL1        0.1152
     19 N         140.9642  140.4229  169.6332 N.am    1  UNL1       -0.2726
     20 C         139.7937  140.2994  168.7034 C.3     1  UNL1        0.1152
     21 C         142.3576  140.4818  169.0811 C.2     1  UNL1        0.2491
     22 O         143.5282  140.6053  170.0109 O.2     1  UNL1       -0.2699
     23 C         144.6548  141.1670  156.4913 C.3     1  UNL1        0.1110
     24 C         145.0582  142.4004  155.7390 C.3     1  UNL1        0.0939
     25 N         146.4318  142.5007  155.1446 N.3     1  UNL1       -0.2712
     26 C         146.8469  143.4195  154.0340 C.3     1  UNL1        0.0722
     27 C         148.3031  143.1865  153.7594 C.3     1  UNL1        0.0188
     28 C         148.7879  142.1236  154.7004 C.3     1  UNL1        0.0188
     29 C         147.6314  141.6998  155.5565 C.3     1  UNL1        0.0722
@<TRIPOS>BOND
     1    18    19    1
     2    19    20    1
     3    19    21   am
     4    21    22    2
     5    21    12    1
     6    12    13   ar
     7    13    14   ar
     8    14    15   ar
     9    15     1    1
    10     1     2   ar
    11     2     3   ar
    12     3     4   ar
    13     4     5   ar
    14     5     6   ar
    15     5     7    1
    16     7     8    1
    17     8     9    1
    18     9    23    1
    19    23    24    1
    20    24    25    1
    21    25    26    1
    22    26    27    1
    23    27    28    1
    24    28    29    1
    25     9    10   am
    26    10    11    2
    27    15    16   ar
    28    16    17   ar
    29    17    12   ar
    30     6     1   ar
    31    29    25    1
    32    10     4    1
@<TRIPOS>MOLECULE
*****
 29 32 0 0 0
SMALL
GASTEIGER

@<TRIPOS>ATOM
      1 C         139.0285  141.1959  163.4731 C.ar    1  UNL1       -0.0003
      2 C         138.1985  140.0981  162.8766 C.ar    1  UNL1        0.0001
      3 C         137.8923  140.1028  161.4082 C.ar    1  UNL1        0.0042
      4 C         138.4160  141.2054  160.5364 C.ar    1  UNL1        0.0497
      5 C         139.2459  142.3032  161.1329 C.ar    1  UNL1       -0.0161
      6 C         139.5522  142.2985  162.6013 C.ar    1  UNL1       -0.0041
      7 C         139.7696  143.4058  160.2611 C.3     1  UNL1        0.0480
      8 C         139.4633  143.4106  158.7927 C.3     1  UNL1        0.0984
      9 N         138.6334  142.3127  158.1961 N.am    1  UNL1       -0.2743
     10 C         138.1097  141.2101  159.0679 C.2     1  UNL1        0.2488
     11 O         137.2798  140.1123  158.4714 O.2     1  UNL1       -0.2699
     12 C         139.9473  141.1818  167.8783 C.ar    1  UNL1        0.0536
     13 C         140.2471  142.3983  167.0536 C.ar    1  UNL1        0.0045
     14 C         139.9408  142.4030  165.5851 C.ar    1  UNL1        0.0001
     15 C         139.3348  141.1912  164.9415 C.ar    1  UNL1       -0.0000
     16 C         139.0350  139.9747  165.7663 C.ar    1  UNL1        0.0001
     17 C         139.3413  139.9700  167.2346 C.ar    1  UNL1        0.0045
     18 C         141.9418  140.8362  171.2919 C.3     1  UNL1        0.1152
     19 N         141.6355  140.8409  169.8235 N.am    1  UNL1       -0.2726
     20 C         142.7111  140.5095  168.8319 C.3     1  UNL1        0.1152
     21 C         140.2536  141.1770  169.3467 C.2     1  UNL1        0.2491
     22 O         139.1780  141.5084  170.3383 O.2     1  UNL1       -0.2699
     23 C         138.3271  142.3174  156.7277 C.3     1  UNL1        0.1110
     24 C         137.0419  142.9107  156.2315 C.3     1  UNL1        0.0939
     25 N         136.1086  142.0860  155.3956 N.3     1  UNL1       -0.2712
     26 C         135.8854  142.2314  153.9194 C.3     1  UNL1        0.0722
     27 C         134.8734  141.2063  153.5005 C.3     1  UNL1        0.0188
     28 C         134.4713  140.4275  154.7178 C.3     1  UNL1        0.0188
     29 C         135.2346  140.9712  155.8890 C.3     1  UNL1        0.0722
@<TRIPOS>BOND
     1    18    19    1
     2    19    20    1
     3    19    21   am
     4    21    22    2
     5    21    12    1
     6    12    13   ar
     7    13    14   ar
     8    14    15   ar
     9    15     1    1
    10     1     2   ar
    11     2     3   ar
    12     3     4   ar
    13     4     5   ar
    14     5     6   ar
    15     5     7    1
    16     7     8    1
    17     8     9    1
    18     9    23    1
    19    23    24    1
    20    24    25    1
    21    25    26    1
    22    26    27    1
    23    27    28    1
    24    28    29    1
    25     9    10   am
    26    10    11    2
    27    15    16   ar
    28    16    17   ar
    29    17    12   ar
    30     6     1   ar
    31    29    25    1
    32    10     4    1
@<TRIPOS>MOLECULE
*****
 29 32 0 0 0
SMALL
GASTEIGER

@<TRIPOS>ATOM
      1 C         142.5053  139.7145  163.2900 C.ar    1  UNL1       -0.0003
      2 C         143.7939  139.7594  162.5236 C.ar    1  UNL1        0.0001
      3 C         143.8005  139.4777  161.0504 C.ar    1  UNL1        0.0042
      4 C         142.5185  139.1511  160.3435 C.ar    1  UNL1        0.0497
      5 C         141.2299  139.1061  161.1098 C.ar    1  UNL1       -0.0161
      6 C         141.2232  139.3879  162.5831 C.ar    1  UNL1       -0.0041
      7 C         139.9478  138.7795  160.4029 C.3     1  UNL1        0.0480
      8 C         139.9544  138.4978  158.9296 C.3     1  UNL1        0.0984
      9 N         141.2431  138.5427  158.1632 N.am    1  UNL1       -0.2743
     10 C         142.5252  138.8693  158.8701 C.2     1  UNL1        0.2488
     11 O         143.8138  138.9143  158.1038 O.2     1  UNL1       -0.2699
     12 C         142.4852  140.5597  167.7099 C.ar    1  UNL1        0.0536
     13 C         142.6991  139.1600  167.2150 C.ar    1  UNL1        0.0045
     14 C         142.7058  138.8783  165.7416 C.ar    1  UNL1        0.0001
     15 C         142.4986  139.9963  164.7633 C.ar    1  UNL1       -0.0000
     16 C         142.2847  141.3960  165.2583 C.ar    1  UNL1        0.0001
     17 C         142.2780  141.6778  166.7315 C.ar    1  UNL1        0.0045
     18 C         141.1812  141.0923  171.4201 C.3     1  UNL1        0.1152
     19 N         141.1879  140.8105  169.9468 N.am    1  UNL1       -0.2726
     20 C         139.9039  140.4978  169.2372 C.3     1  UNL1        0.1152
     21 C         142.4786  140.8415  169.1832 C.2     1  UNL1        0.2491
     22 O         143.7625  141.1543  169.8928 O.2     1  UNL1       -0.2699
     23 C         141.2498  138.2610  156.6899 C.3     1  UNL1        0.1110
     24 C         140.7948  136.9258  156.1796 C.3     1  UNL1        0.0939
     25 N         141.7778  135.8014  156.0406 N.3     1  UNL1       -0.2712
     26 C         141.7025  134.6826  155.0442 C.3     1  UNL1        0.0722
     27 C         142.8869  133.7880  155.2614 C.3     1  UNL1        0.0188
     28 C         143.6941  134.3540  156.3920 C.3     1  UNL1        0.0188
     29 C         143.0087  135.5983  156.8735 C.3     1  UNL1        0.0722
@<TRIPOS>BOND
     1    18    19    1
     2    19    20    1
     3    19    21   am
     4    21    22    2
     5    21    12    1
     6    12    13   ar
     7    13    14   ar
     8    14    15   ar
     9    15     1    1
    10     1     2   ar
    11     2     3   ar
    12     3     4   ar
    13     4     5   ar
    14     5     6   ar
    15     5     7    1
    16     7     8    1
    17     8     9    1
    18     9    23    1
    19    23    24    1
    20    24    25    1
    21    25    26    1
    22    26    27    1
    23    27    28    1
    24    28    29    1
    25     9    10   am
    26    10    11    2
    27    15    16   ar
    28    16    17   ar
    29    17    12   ar
    30     6     1   ar
    31    29    25    1
    32    10     4    1
@<TRIPOS>MOLECULE
*****
 29 32 0 0 0
SMALL
GASTEIGER

@<TRIPOS>ATOM
      1 C         140.1865  138.6097  162.3840 C.ar    1  UNL1       -0.0003
      2 C         139.1108  137.7388  162.9623 C.ar    1  UNL1        0.0001
      3 C         138.7083  137.8978  164.3985 C.ar    1  UNL1        0.0042
      4 C         139.3816  138.9277  165.2564 C.ar    1  UNL1        0.0497
      5 C         140.4573  139.7985  164.6782 C.ar    1  UNL1       -0.0161
      6 C         140.8598  139.6395  163.2420 C.ar    1  UNL1       -0.0041
      7 C         141.1306  140.8284  165.5361 C.3     1  UNL1        0.0480
      8 C         140.7282  140.9874  166.9723 C.3     1  UNL1        0.0984
      9 N         139.6525  140.1165  167.5507 N.am    1  UNL1       -0.2743
     10 C         138.9792  139.0867  166.6927 C.2     1  UNL1        0.2488
     11 O         137.9034  138.2158  167.2710 O.2     1  UNL1       -0.2699
     12 C         141.3938  138.1327  158.0753 C.ar    1  UNL1        0.0536
     13 C         142.4270  138.0377  159.1586 C.ar    1  UNL1        0.0045
     14 C         142.0245  138.1967  160.5948 C.ar    1  UNL1        0.0001
     15 C         140.5889  138.4507  160.9477 C.ar    1  UNL1       -0.0000
     16 C         139.5558  138.5457  159.8644 C.ar    1  UNL1        0.0001
     17 C         139.9582  138.3867  158.4282 C.ar    1  UNL1        0.0045
     18 C         142.6345  139.0108  154.4092 C.3     1  UNL1        0.1152
     19 N         142.2321  139.1697  155.8455 N.am    1  UNL1       -0.2726
     20 C         142.2655  140.5246  156.4883 C.3     1  UNL1        0.1152
     21 C         141.7962  137.9738  156.6390 C.2     1  UNL1        0.2491
     22 O         141.7628  136.6188  155.9963 O.2     1  UNL1       -0.2699
     23 C         139.2500  140.2755  168.9869 C.3     1  UNL1        0.1110
     24 C         140.2766  140.1427  170.0725 C.3     1  UNL1        0.0939
     25 N         141.4465  141.0805  170.1173 N.3     1  UNL1       -0.2712
     26 C         142.8791  140.7155  169.8639 C.3     1  UNL1        0.0722
     27 C         143.7072  141.9574  170.0133 C.3     1  UNL1        0.0188
     28 C         142.7862  143.0898  170.3591 C.3     1  UNL1        0.0188
     29 C         141.3890  142.5478  170.4233 C.3     1  UNL1        0.0722
@<TRIPOS>BOND
     1    18    19    1
     2    19    20    1
     3    19    21   am
     4    21    22    2
     5    21    12    1
     6    12    13   ar
     7    13    14   ar
     8    14    15   ar
     9    15     1    1
    10     1     2   ar
    11     2     3   ar
    12     3     4   ar
    13     4     5   ar
    14     5     6   ar
    15     5     7    1
    16     7     8    1
    17     8     9    1
    18     9    23    1
    19    23    24    1
    20    24    25    1
    21    25    26    1
    22    26    27    1
    23    27    28    1
    24    28    29    1
    25     9    10   am
    26    10    11    2
    27    15    16   ar
    28    16    17   ar
    29    17    12   ar
    30     6     1   ar
    31    29    25    1
    32    10     4    1
@<TRIPOS>MOLECULE
*****
 29 32 0 0 0
SMALL
GASTEIGER

@<TRIPOS>ATOM
      1 C         139.0750  141.2136  163.5858 C.ar    1  UNL1       -0.0003
      2 C         138.2423  140.1204  162.9844 C.ar    1  UNL1        0.0001
      3 C         137.9325  140.1347  161.5169 C.ar    1  UNL1        0.0042
      4 C         138.4554  141.2421  160.6507 C.ar    1  UNL1        0.0497
      5 C         139.2881  142.3352  161.2521 C.ar    1  UNL1       -0.0161
      6 C         139.5979  142.3210  162.7196 C.ar    1  UNL1       -0.0041
      7 C         139.8109  143.4427  160.3859 C.3     1  UNL1        0.0480
      8 C         139.5011  143.4569  158.9183 C.3     1  UNL1        0.0984
      9 N         138.6684  142.3638  158.3169 N.am    1  UNL1       -0.2743
     10 C         138.1455  141.2564  159.1831 C.2     1  UNL1        0.2488
     11 O         137.3128  140.1633  158.5817 O.2     1  UNL1       -0.2699
     12 C         140.0046  141.1708  167.9886 C.ar    1  UNL1        0.0536
     13 C         140.3204  142.3855  167.1672 C.ar    1  UNL1        0.0045
     14 C         140.0105  142.3997  165.6996 C.ar    1  UNL1        0.0001
     15 C         139.3849  141.1993  165.0534 C.ar    1  UNL1       -0.0000
     16 C         139.0691  139.9846  165.8749 C.ar    1  UNL1        0.0001
     17 C         139.3789  139.9703  167.3424 C.ar    1  UNL1        0.0045
     18 C         142.0031  140.7872  171.3958 C.3     1  UNL1        0.1152
     19 N         141.6932  140.8015  169.9281 N.am    1  UNL1       -0.2726
     20 C         142.7622  140.4608  168.9325 C.3     1  UNL1        0.1152
     21 C         140.3144  141.1565  169.4562 C.2     1  UNL1        0.2491
     22 O         139.2454  141.4971  170.4518 O.2     1  UNL1       -0.2699
     23 C         138.3586  142.3781  156.8493 C.3     1  UNL1        0.1110
     24 C         139.3130  143.0216  155.8875 C.3     1  UNL1        0.0939
     25 N         139.2965  144.5094  155.6969 N.3     1  UNL1       -0.2712
     26 C         140.4331  145.4469  155.9786 C.3     1  UNL1        0.0722
     27 C         139.9796  146.8378  155.6470 C.3     1  UNL1        0.0188
     28 C         138.5628  146.7598  155.1604 C.3     1  UNL1        0.0188
     29 C         138.1407  145.3208  155.1913 C.3     1  UNL1        0.0722
@<TRIPOS>BOND
     1    18    19    1
     2    19    20    1
     3    19    21   am
     4    21    22    2
     5    21    12    1
     6    12    13   ar
     7    13    14   ar
     8    14    15   ar
     9    15     1    1
    10     1     2   ar
    11     2     3   ar
    12     3     4   ar
    13     4     5   ar
    14     5     6   ar
    15     5     7    1
    16     7     8    1
    17     8     9    1
    18     9    23    1
    19    23    24    1
    20    24    25    1
    21    25    26    1
    22    26    27    1
    23    27    28    1
    24    28    29    1
    25     9    10   am
    26    10    11    2
    27    15    16   ar
    28    16    17   ar
    29    17    12   ar
    30     6     1   ar
    31    29    25    1
    32    10     4    1
@<TRIPOS>MOLECULE
*****
 29 32 0 0 0
SMALL
GASTEIGER

@<TRIPOS>ATOM
      1 C         140.2335  142.5872  163.1318 C.ar    1  UNL1       -0.0003
      2 C         139.4851  141.5080  162.4074 C.ar    1  UNL1        0.0001
      3 C         139.1711  141.6625  160.9488 C.ar    1  UNL1        0.0042
      4 C         139.6056  142.8963  160.2147 C.ar    1  UNL1        0.0497
      5 C         140.3541  143.9755  160.9391 C.ar    1  UNL1       -0.0161
      6 C         140.6681  143.8210  162.3977 C.ar    1  UNL1       -0.0041
      7 C         140.7887  145.2093  160.2050 C.3     1  UNL1        0.0480
      8 C         140.4747  145.3638  158.7464 C.3     1  UNL1        0.0984
      9 N         139.7262  144.2845  158.0219 N.am    1  UNL1       -0.2743
     10 C         139.2916  143.0508  158.7560 C.2     1  UNL1        0.2488
     11 O         138.5431  141.9715  158.0315 O.2     1  UNL1       -0.2699
     12 C         141.1755  142.1238  167.5077 C.ar    1  UNL1        0.0536
     13 C         141.8617  141.2539  166.4966 C.ar    1  UNL1        0.0045
     14 C         141.5477  141.4084  165.0380 C.ar    1  UNL1        0.0001
     15 C         140.5475  142.4327  164.5905 C.ar    1  UNL1       -0.0000
     16 C         139.8613  143.3026  165.6016 C.ar    1  UNL1        0.0001
     17 C         140.1752  143.1482  167.0602 C.ar    1  UNL1        0.0045
     18 C         141.0062  140.8634  171.2671 C.3     1  UNL1        0.1152
     19 N         140.6922  141.0179  169.8084 N.am    1  UNL1       -0.2726
     20 C         139.5811  140.2208  169.1919 C.3     1  UNL1        0.1152
     21 C         141.4894  141.9694  168.9663 C.2     1  UNL1        0.2491
     22 O         142.6006  142.7664  169.5829 O.2     1  UNL1       -0.2699
     23 C         139.4122  144.4391  156.5633 C.3     1  UNL1        0.1110
     24 C         140.3067  145.2649  155.6869 C.3     1  UNL1        0.0939
     25 N         139.9190  146.6696  155.3312 N.3     1  UNL1       -0.2712
     26 C         140.3889  147.4368  154.1310 C.3     1  UNL1        0.0722
     27 C         139.7537  148.7952  154.1713 C.3     1  UNL1        0.0188
     28 C         138.8911  148.8673  155.3964 C.3     1  UNL1        0.0188
     29 C         138.9933  147.5537  156.1133 C.3     1  UNL1        0.0722
@<TRIPOS>BOND
     1    18    19    1
     2    19    20    1
     3    19    21   am
     4    21    22    2
     5    21    12    1
     6    12    13   ar
     7    13    14   ar
     8    14    15   ar
     9    15     1    1
    10     1     2   ar
    11     2     3   ar
    12     3     4   ar
    13     4     5   ar
    14     5     6   ar
    15     5     7    1
    16     7     8    1
    17     8     9    1
    18     9    23    1
    19    23    24    1
    20    24    25    1
    21    25    26    1
    22    26    27    1
    23    27    28    1
    24    28    29    1
    25     9    10   am
    26    10    11    2
    27    15    16   ar
    28    16    17   ar
    29    17    12   ar
    30     6     1   ar
    31    29    25    1
    32    10     4    1
@<TRIPOS>MOLECULE
*****
 29 32 0 0 0
SMALL
GASTEIGER

@<TRIPOS>ATOM
      1 C         139.7566  143.1914  160.2825 C.ar    1  UNL1       -0.0003
      2 C         138.5634  142.2881  160.3848 C.ar    1  UNL1        0.0001
      3 C         138.2995  141.5351  161.6549 C.ar    1  UNL1        0.0042
      4 C         139.2288  141.6852  162.8227 C.ar    1  UNL1        0.0497
      5 C         140.4219  142.5884  162.7205 C.ar    1  UNL1       -0.0161
      6 C         140.6858  143.3415  161.4504 C.ar    1  UNL1       -0.0041
      7 C         141.3512  142.7386  163.8884 C.3     1  UNL1        0.0480
      8 C         141.0873  141.9855  165.1585 C.3     1  UNL1        0.0984
      9 N         139.8941  141.0822  165.2607 N.am    1  UNL1       -0.2743
     10 C         138.9648  140.9321  164.0929 C.2     1  UNL1        0.2488
     11 O         137.7716  140.0288  164.1951 O.2     1  UNL1       -0.2699
     12 C         140.5484  145.4507  156.4722 C.ar    1  UNL1        0.0536
     13 C         141.2886  145.8118  157.7258 C.ar    1  UNL1        0.0045
     14 C         141.0247  145.0586  158.9960 C.ar    1  UNL1        0.0001
     15 C         140.0205  143.9445  159.0124 C.ar    1  UNL1       -0.0000
     16 C         139.2802  143.5835  157.7588 C.ar    1  UNL1        0.0001
     17 C         139.5441  144.3366  156.4887 C.ar    1  UNL1        0.0045
     18 C         140.2862  148.1919  153.6143 C.3     1  UNL1        0.1152
     19 N         140.0224  147.4388  154.8845 N.am    1  UNL1       -0.2726
     20 C         138.9686  147.9206  155.8370 C.3     1  UNL1        0.1152
     21 C         140.8123  146.2038  155.2021 C.2     1  UNL1        0.2491
     22 O         141.8661  145.7219  154.2496 O.2     1  UNL1       -0.2699
     23 C         139.6302  140.3291  166.5308 C.3     1  UNL1        0.1110
     24 C         140.5758  140.4560  167.6883 C.3     1  UNL1        0.0939
     25 N         140.3871  141.5529  168.6941 N.3     1  UNL1       -0.2712
     26 C         140.8858  142.9618  168.5660 C.3     1  UNL1        0.0722
     27 C         140.4736  143.7130  169.7972 C.3     1  UNL1        0.0188
     28 C         139.7202  142.7684  170.6861 C.3     1  UNL1        0.0188
     29 C         139.6668  141.4334  170.0043 C.3     1  UNL1        0.0722
@<TRIPOS>BOND
     1    18    19    1
     2    19    20    1
     3    19    21   am
     4    21    22    2
     5    21    12    1
     6    12    13   ar
     7    13    14   ar
     8    14    15   ar
     9    15     1    1
    10     1     2   ar
    11     2     3   ar
    12     3     4   ar
    13     4     5   ar
    14     5     6   ar
    15     5     7    1
    16     7     8    1
    17     8     9    1
    18     9    23    1
    19    23    24    1
    20    24    25    1
    21    25    26    1
    22    26    27    1
    23    27    28    1
    24    28    29    1
    25     9    10   am
    26    10    11    2
    27    15    16   ar
    28    16    17   ar
    29    17    12   ar
    30     6     1   ar
    31    29    25    1
    32    10     4    1
