@<TRIPOS>MOLECULE
*****
 24 27 0 0 0
SMALL
GASTEIGER

@<TRIPOS>ATOM
      1 O         138.9622  139.1955  167.0043 O.3     1  UNL1       -0.4791
      2 C         138.8101  139.0783  165.5166 C.3     1  UNL1        0.1686
      3 C         138.1504  140.1798  164.7411 C.3     1  UNL1        0.0595
      4 C         137.9983  140.0625  163.2534 C.3     1  UNL1        0.0611
      5 C         138.0620  139.5372  161.8499 C.3     1  UNL1        0.0175
      6 C         138.7360  138.1976  161.8865 C.3     1  UNL1        0.0175
      7 C         139.0889  137.8951  163.3127 C.3     1  UNL1        0.0611
      8 C         139.3178  137.8596  164.8045 C.3     1  UNL1        0.0595
      9 N         138.6330  139.0477  164.1575 N.3     1  UNL1       -0.2750
     10 C         138.7850  139.1650  165.6452 C.3     1  UNL1        0.0720
     11 C         137.9398  138.3228  166.5542 C.3     1  UNL1        0.0160
     12 C         137.0654  138.1949  167.7662 C.3     1  UNL1        0.0014
     13 C         137.3502  136.9920  166.9166 C.3     1  UNL1        0.0014
     14 C         140.8146  141.8493  169.3012 C.ar    1  UNL1        0.0561
     15 C         142.2032  141.7922  168.7370 C.ar    1  UNL1        0.0047
     16 C         142.5115  140.8696  167.5952 C.ar    1  UNL1        0.0033
     17 C         141.4312  140.0041  167.0177 C.ar    1  UNL1        0.0369
     18 C         140.0426  140.0611  167.5819 C.ar    1  UNL1        0.1385
     19 C         139.7342  140.9837  168.7236 C.ar    1  UNL1        0.0414
     20 N         140.1829  144.2123  170.1771 N.am    1  UNL1       -0.3253
     21 C         140.5063  142.7719  170.4430 C.2     1  UNL1        0.2428
     22 O         140.5214  142.2542  171.8508 O.2     1  UNL1       -0.2704
     23 H         139.9806  144.8179  170.9265 H       1  UNL1        0.1453
     24 H         140.1730  144.5522  169.2531 H       1  UNL1        0.1453
@<TRIPOS>BOND
     1    20    21   am
     2    21    22    2
     3    21    14    1
     4    14    15   ar
     5    15    16   ar
     6    16    17   ar
     7    17    18   ar
     8    18     1    1
     9     2     1    1
    10     2     3    1
    11     4     3    1
    12     4     5    1
    13     5     6    1
    14     7     6    1
    15     7     8    1
    16     7     9    1
    17     9    10    1
    18    10    11    1
    19    11    12    1
    20    12    13    1
    21    18    19   ar
    22    19    14   ar
    23     8     2    1
    24    13    11    1
    25     9     4    1
    26    20    23    1
    27    20    24    1
@<TRIPOS>MOLECULE
*****
 24 27 0 0 0
SMALL
GASTEIGER

@<TRIPOS>ATOM
      1 O         140.9854  142.9406  165.7311 O.3     1  UNL1       -0.4791
      2 C         142.2028  142.4939  164.9771 C.3     1  UNL1        0.1686
      3 C         143.5682  142.8910  165.4544 C.3     1  UNL1        0.0595
      4 C         144.7856  142.4443  164.7004 C.3     1  UNL1        0.0611
      5 C         145.6733  141.7981  163.6785 C.3     1  UNL1        0.0175
      6 C         144.7995  141.0817  162.6920 C.3     1  UNL1        0.0175
      7 C         143.3716  141.2852  163.1042 C.3     1  UNL1        0.0611
      8 C         142.0547  141.6502  163.7457 C.3     1  UNL1        0.0595
      9 N         143.3630  142.1273  164.3455 N.3     1  UNL1       -0.2750
     10 C         142.1457  142.5740  165.0995 C.3     1  UNL1        0.0720
     11 C         141.3285  143.7243  164.5907 C.3     1  UNL1        0.0160
     12 C         140.0281  144.4699  164.5352 C.3     1  UNL1        0.0014
     13 C         141.2135  144.9712  163.7648 C.3     1  UNL1        0.0014
     14 C         140.0816  141.9185  169.4577 C.ar    1  UNL1        0.0561
     15 C         139.5116  140.5475  169.2453 C.ar    1  UNL1        0.0047
     16 C         139.4328  139.9741  167.8615 C.ar    1  UNL1        0.0033
     17 C         139.9240  140.7718  166.6901 C.ar    1  UNL1        0.0369
     18 C         140.4941  142.1429  166.9025 C.ar    1  UNL1        0.1385
     19 C         140.5729  142.7163  168.2863 C.ar    1  UNL1        0.0414
     20 N         139.0321  143.3250  171.3736 N.am    1  UNL1       -0.3253
     21 C         140.1604  142.4919  170.8416 C.2     1  UNL1        0.2428
     22 O         141.3674  142.2321  171.6935 O.2     1  UNL1       -0.2704
     23 H         139.0838  143.7013  172.2819 H       1  UNL1        0.1453
     24 H         138.2399  143.4955  170.8145 H       1  UNL1        0.1453
@<TRIPOS>BOND
     1    20    21   am
     2    21    22    2
     3    21    14    1
     4    14    15   ar
     5    15    16   ar
     6    16    17   ar
     7    17    18   ar
     8    18     1    1
     9     2     1    1
    10     2     3    1
    11     4     3    1
    12     4     5    1
    13     5     6    1
    14     7     6    1
    15     7     8    1
    16     7     9    1
    17     9    10    1
    18    10    11    1
    19    11    12    1
    20    12    13    1
    21    18    19   ar
    22    19    14   ar
    23     8     2    1
    24    13    11    1
    25     9     4    1
    26    20    23    1
    27    20    24    1
@<TRIPOS>MOLECULE
*****
 24 27 0 0 0
SMALL
GASTEIGER

@<TRIPOS>ATOM
      1 O         139.6844  141.7552  166.2489 O.3     1  UNL1       -0.4791
      2 C         140.7207  142.0377  167.2960 C.3     1  UNL1        0.1686
      3 C         140.3167  142.6463  168.6061 C.3     1  UNL1        0.0595
      4 C         141.3530  142.9287  169.6531 C.3     1  UNL1        0.0611
      5 C         142.6676  143.0305  170.3683 C.3     1  UNL1        0.0175
      6 C         143.7323  142.4908  169.4601 C.3     1  UNL1        0.0175
      7 C         143.0758  142.0554  168.1836 C.3     1  UNL1        0.0611
      8 C         142.1610  141.7114  167.0330 C.3     1  UNL1        0.0595
      9 N         141.6053  142.3260  168.3029 N.3     1  UNL1       -0.2750
     10 C         140.5690  142.0437  167.2558 C.3     1  UNL1        0.0720
     11 C         140.3820  142.9937  166.1102 C.3     1  UNL1        0.0160
     12 C         140.9019  143.6399  164.8604 C.3     1  UNL1        0.0014
     13 C         139.5382  143.9930  165.3758 C.3     1  UNL1        0.0014
     14 C         139.2672  138.2901  164.3599 C.ar    1  UNL1        0.0561
     15 C         138.4747  137.5115  165.3676 C.ar    1  UNL1        0.0047
     16 C         138.0854  138.1475  166.6692 C.ar    1  UNL1        0.0033
     17 C         138.4886  139.5620  166.9629 C.ar    1  UNL1        0.0369
     18 C         139.2812  140.3406  165.9551 C.ar    1  UNL1        0.1385
     19 C         139.6704  139.7047  164.6536 C.ar    1  UNL1        0.0414
     20 N         138.7309  137.7294  161.8803 N.am    1  UNL1       -0.3253
     21 C         139.6565  137.6541  163.0583 C.2     1  UNL1        0.2428
     22 O         140.9713  136.9427  162.9348 O.2     1  UNL1       -0.2704
     23 H         138.9864  137.3120  161.0261 H       1  UNL1        0.1453
     24 H         137.8680  138.1963  161.9614 H       1  UNL1        0.1453
@<TRIPOS>BOND
     1    20    21   am
     2    21    22    2
     3    21    14    1
     4    14    15   ar
     5    15    16   ar
     6    16    17   ar
     7    17    18   ar
     8    18     1    1
     9     2     1    1
    10     2     3    1
    11     4     3    1
    12     4     5    1
    13     5     6    1
    14     7     6    1
    15     7     8    1
    16     7     9    1
    17     9    10    1
    18    10    11    1
    19    11    12    1
    20    12    13    1
    21    18    19   ar
    22    19    14   ar
    23     8     2    1
    24    13    11    1
    25     9     4    1
    26    20    23    1
    27    20    24    1
@<TRIPOS>MOLECULE
*****
 24 27 0 0 0
SMALL
GASTEIGER

@<TRIPOS>ATOM
      1 O         142.7592  140.4937  166.0999 O.3     1  UNL1       -0.4791
      2 C         142.8892  141.7297  165.2599 C.3     1  UNL1        0.1686
      3 C         143.8429  142.8145  165.6644 C.3     1  UNL1        0.0595
      4 C         143.9729  144.0505  164.8245 C.3     1  UNL1        0.0611
      5 C         143.7794  145.0594  163.7315 C.3     1  UNL1        0.0175
      6 C         142.7533  144.5203  162.7794 C.3     1  UNL1        0.0175
      7 C         142.3125  143.1782  163.2840 C.3     1  UNL1        0.0611
      8 C         142.0655  141.8809  164.0154 C.3     1  UNL1        0.0595
      9 N         143.0663  142.8879  164.5480 N.3     1  UNL1       -0.2750
     10 C         142.9363  141.6519  165.3879 C.3     1  UNL1        0.0720
     11 C         143.6518  140.3953  164.9891 C.3     1  UNL1        0.0160
     12 C         144.8117  139.7166  164.3228 C.3     1  UNL1        0.0014
     13 C         143.7311  138.8976  164.9645 C.3     1  UNL1        0.0014
     14 C         141.0419  140.7245  169.6702 C.ar    1  UNL1        0.0561
     15 C         139.6436  140.2932  169.3406 C.ar    1  UNL1        0.0047
     16 C         139.2838  139.9287  167.9308 C.ar    1  UNL1        0.0033
     17 C         140.3223  139.9956  166.8506 C.ar    1  UNL1        0.0369
     18 C         141.7207  140.4269  167.1801 C.ar    1  UNL1        0.1385
     19 C         142.0805  140.7914  168.5899 C.ar    1  UNL1        0.0414
     20 N         142.6029  140.4703  171.7315 N.am    1  UNL1       -0.3253
     21 C         141.4017  141.0890  171.0801 C.2     1  UNL1        0.2428
     22 O         140.5602  142.0723  171.8386 O.2     1  UNL1       -0.2704
     23 H         142.8390  140.7095  172.6568 H       1  UNL1        0.1453
     24 H         143.1552  139.8250  171.2337 H       1  UNL1        0.1453
@<TRIPOS>BOND
     1    20    21   am
     2    21    22    2
     3    21    14    1
     4    14    15   ar
     5    15    16   ar
     6    16    17   ar
     7    17    18   ar
     8    18     1    1
     9     2     1    1
    10     2     3    1
    11     4     3    1
    12     4     5    1
    13     5     6    1
    14     7     6    1
    15     7     8    1
    16     7     9    1
    17     9    10    1
    18    10    11    1
    19    11    12    1
    20    12    13    1
    21    18    19   ar
    22    19    14   ar
    23     8     2    1
    24    13    11    1
    25     9     4    1
    26    20    23    1
    27    20    24    1
@<TRIPOS>MOLECULE
*****
 24 27 0 0 0
SMALL
GASTEIGER

@<TRIPOS>ATOM
      1 O         142.6000  140.6478  166.1450 O.3     1  UNL1       -0.4791
      2 C         142.7733  141.8694  165.2918 C.3     1  UNL1        0.1686
      3 C         141.7981  142.1588  164.1894 C.3     1  UNL1        0.0595
      4 C         141.9715  143.3803  163.3363 C.3     1  UNL1        0.0611
      5 C         142.5152  144.6567  162.7660 C.3     1  UNL1        0.0175
      6 C         143.7414  145.0277  163.5463 C.3     1  UNL1        0.0175
      7 C         143.9555  143.9806  164.5989 C.3     1  UNL1        0.0611
      8 C         143.9219  142.8014  165.5410 C.3     1  UNL1        0.0595
      9 N         142.8616  142.9625  164.4691 N.3     1  UNL1       -0.2750
     10 C         142.6882  141.7409  165.3222 C.3     1  UNL1        0.0720
     11 C         143.5271  140.5236  165.0684 C.3     1  UNL1        0.0160
     12 C         143.8394  139.0817  165.3392 C.3     1  UNL1        0.0014
     13 C         144.6676  139.8570  164.3579 C.3     1  UNL1        0.0014
     14 C         141.0329  141.3966  169.7133 C.ar    1  UNL1        0.0561
     15 C         139.7084  140.7031  169.5924 C.ar    1  UNL1        0.0047
     16 C         139.3477  139.9912  168.3223 C.ar    1  UNL1        0.0033
     17 C         140.3116  139.9728  167.1732 C.ar    1  UNL1        0.0369
     18 C         141.6361  140.6662  167.2941 C.ar    1  UNL1        0.1385
     19 C         141.9968  141.3781  168.5641 C.ar    1  UNL1        0.0414
     20 N         142.7196  142.7989  171.1057 N.am    1  UNL1       -0.3253
     21 C         141.3936  142.1084  170.9834 C.2     1  UNL1        0.2428
     22 O         140.4282  142.1299  172.1313 O.2     1  UNL1       -0.2704
     23 H         142.9563  143.2661  171.9393 H       1  UNL1        0.1453
     24 H         143.3533  142.7848  170.3523 H       1  UNL1        0.1453
@<TRIPOS>BOND
     1    20    21   am
     2    21    22    2
     3    21    14    1
     4    14    15   ar
     5    15    16   ar
     6    16    17   ar
     7    17    18   ar
     8    18     1    1
     9     2     1    1
    10     2     3    1
    11     4     3    1
    12     4     5    1
    13     5     6    1
    14     7     6    1
    15     7     8    1
    16     7     9    1
    17     9    10    1
    18    10    11    1
    19    11    12    1
    20    12    13    1
    21    18    19   ar
    22    19    14   ar
    23     8     2    1
    24    13    11    1
    25     9     4    1
    26    20    23    1
    27    20    24    1
@<TRIPOS>MOLECULE
*****
 24 27 0 0 0
SMALL
GASTEIGER

@<TRIPOS>ATOM
      1 O         139.9156  141.9578  165.9243 O.3     1  UNL1       -0.4791
      2 C         139.7753  140.7520  165.0430 C.3     1  UNL1        0.1686
      3 C         140.7657  140.5075  163.9433 C.3     1  UNL1        0.0595
      4 C         140.6255  139.3018  163.0621 C.3     1  UNL1        0.0611
      5 C         140.1137  138.0272  162.4592 C.3     1  UNL1        0.0175
      6 C         138.8891  137.6135  163.2202 C.3     1  UNL1        0.0175
      7 C         138.6441  138.6323  164.2935 C.3     1  UNL1        0.0611
      8 C         138.6447  139.7908  165.2615 C.3     1  UNL1        0.0595
      9 N         139.7172  139.6758  164.1958 N.3     1  UNL1       -0.2750
     10 C         139.8575  140.8815  165.0770 C.3     1  UNL1        0.0720
     11 C         138.9938  142.0856  164.8437 C.3     1  UNL1        0.0160
     12 C         137.7033  142.6867  164.3713 C.3     1  UNL1        0.0014
     13 C         138.7885  143.5699  164.9121 C.3     1  UNL1        0.0014
     14 C         141.1359  141.4549  169.6669 C.ar    1  UNL1        0.0561
     15 C         142.5894  141.8030  169.5404 C.ar    1  UNL1        0.0047
     16 C         143.1517  142.2027  168.2084 C.ar    1  UNL1        0.0033
     17 C         142.2604  142.2543  167.0031 C.ar    1  UNL1        0.0369
     18 C         140.8069  141.9062  167.1297 C.ar    1  UNL1        0.1385
     19 C         140.2446  141.5065  168.4615 C.ar    1  UNL1        0.0414
     20 N         140.0075  139.6795  171.1918 N.am    1  UNL1       -0.3253
     21 C         140.5737  141.0552  170.9989 C.2     1  UNL1        0.2428
     22 O         140.5776  142.0311  172.1381 O.2     1  UNL1       -0.2704
     23 H         139.6385  139.4172  172.0660 H       1  UNL1        0.1453
     24 H         140.0049  139.0390  170.4441 H       1  UNL1        0.1453
@<TRIPOS>BOND
     1    20    21   am
     2    21    22    2
     3    21    14    1
     4    14    15   ar
     5    15    16   ar
     6    16    17   ar
     7    17    18   ar
     8    18     1    1
     9     2     1    1
    10     2     3    1
    11     4     3    1
    12     4     5    1
    13     5     6    1
    14     7     6    1
    15     7     8    1
    16     7     9    1
    17     9    10    1
    18    10    11    1
    19    11    12    1
    20    12    13    1
    21    18    19   ar
    22    19    14   ar
    23     8     2    1
    24    13    11    1
    25     9     4    1
    26    20    23    1
    27    20    24    1
@<TRIPOS>MOLECULE
*****
 24 27 0 0 0
SMALL
GASTEIGER

@<TRIPOS>ATOM
      1 O         142.4838  142.5663  165.5109 O.3     1  UNL1       -0.4791
      2 C         141.1733  142.8301  164.8302 C.3     1  UNL1        0.1686
      3 C         140.1537  143.7154  165.4834 C.3     1  UNL1        0.0595
      4 C         138.8433  143.9791  164.8027 C.3     1  UNL1        0.0611
      5 C         137.7271  143.9612  163.8008 C.3     1  UNL1        0.0175
      6 C         138.1480  143.0913  162.6536 C.3     1  UNL1        0.0175
      7 C         139.5243  142.5716  162.9464 C.3     1  UNL1        0.0611
      8 C         140.8826  142.2087  163.4963 C.3     1  UNL1        0.0595
      9 N         139.9540  143.1203  164.2747 N.3     1  UNL1       -0.2750
     10 C         141.2644  142.8566  164.9554 C.3     1  UNL1        0.0720
     11 C         142.5044  143.5643  164.4954 C.3     1  UNL1        0.0160
     12 C         143.1774  144.7988  163.9729 C.3     1  UNL1        0.0014
     13 C         143.9790  143.5554  164.2210 C.3     1  UNL1        0.0014
     14 C         142.5043  141.7300  169.3903 C.ar    1  UNL1        0.0561
     15 C         142.5916  140.2329  169.3571 C.ar    1  UNL1        0.0047
     16 C         142.6430  139.5137  168.0418 C.ar    1  UNL1        0.0033
     17 C         142.6070  140.2915  166.7598 C.ar    1  UNL1        0.0369
     18 C         142.5197  141.7885  166.7930 C.ar    1  UNL1        0.1385
     19 C         142.4684  142.5078  168.1082 C.ar    1  UNL1        0.0414
     20 N         143.3628  143.6146  170.9592 N.am    1  UNL1       -0.3253
     21 C         142.4530  142.4492  170.7056 C.2     1  UNL1        0.2428
     22 O         141.4919  142.0031  171.7674 O.2     1  UNL1       -0.2704
     23 H         143.3290  144.0867  171.8225 H       1  UNL1        0.1453
     24 H         143.9936  143.9074  170.2624 H       1  UNL1        0.1453
@<TRIPOS>BOND
     1    20    21   am
     2    21    22    2
     3    21    14    1
     4    14    15   ar
     5    15    16   ar
     6    16    17   ar
     7    17    18   ar
     8    18     1    1
     9     2     1    1
    10     2     3    1
    11     4     3    1
    12     4     5    1
    13     5     6    1
    14     7     6    1
    15     7     8    1
    16     7     9    1
    17     9    10    1
    18    10    11    1
    19    11    12    1
    20    12    13    1
    21    18    19   ar
    22    19    14   ar
    23     8     2    1
    24    13    11    1
    25     9     4    1
    26    20    23    1
    27    20    24    1
@<TRIPOS>MOLECULE
*****
 24 27 0 0 0
SMALL
GASTEIGER

@<TRIPOS>ATOM
      1 O         140.0335  140.7647  165.4017 O.3     1  UNL1       -0.4791
      2 C         140.5830  140.3656  166.7393 C.3     1  UNL1        0.1686
      3 C         141.9852  139.8444  166.8489 C.3     1  UNL1        0.0595
      4 C         142.5346  139.4453  168.1864 C.3     1  UNL1        0.0611
      5 C         142.6548  139.1806  169.6579 C.3     1  UNL1        0.0175
      6 C         141.3528  139.5521  170.3035 C.3     1  UNL1        0.0175
      7 C         140.4279  140.0464  169.2310 C.3     1  UNL1        0.0611
      8 C         139.7301  140.4878  167.9672 C.3     1  UNL1        0.0595
      9 N         141.1583  139.9805  167.9225 N.3     1  UNL1       -0.2750
     10 C         140.6090  140.3795  166.5850 C.3     1  UNL1        0.0720
     11 C         139.5864  139.5169  165.9065 C.3     1  UNL1        0.0160
     12 C         138.1630  139.2558  165.5119 C.3     1  UNL1        0.0014
     13 C         139.2386  138.2841  165.1260 C.3     1  UNL1        0.0014
     14 C         141.4810  144.1590  163.9412 C.ar    1  UNL1        0.0561
     15 C         140.2810  145.0516  164.0558 C.ar    1  UNL1        0.0047
     16 C         138.9984  144.5151  164.6192 C.ar    1  UNL1        0.0033
     17 C         138.9160  143.0863  165.0678 C.ar    1  UNL1        0.0369
     18 C         140.1160  142.1937  164.9531 C.ar    1  UNL1        0.1385
     19 C         141.3986  142.7300  164.3898 C.ar    1  UNL1        0.0414
     20 N         142.9332  144.8284  161.8934 N.am    1  UNL1       -0.3253
     21 C         142.7636  144.6954  163.3779 C.2     1  UNL1        0.2428
     22 O         143.8766  145.0989  164.2990 O.2     1  UNL1       -0.2704
     23 H         143.7750  145.1805  161.5237 H       1  UNL1        0.1453
     24 H         142.2027  144.5636  161.2888 H       1  UNL1        0.1453
@<TRIPOS>BOND
     1    20    21   am
     2    21    22    2
     3    21    14    1
     4    14    15   ar
     5    15    16   ar
     6    16    17   ar
     7    17    18   ar
     8    18     1    1
     9     2     1    1
    10     2     3    1
    11     4     3    1
    12     4     5    1
    13     5     6    1
    14     7     6    1
    15     7     8    1
    16     7     9    1
    17     9    10    1
    18    10    11    1
    19    11    12    1
    20    12    13    1
    21    18    19   ar
    22    19    14   ar
    23     8     2    1
    24    13    11    1
    25     9     4    1
    26    20    23    1
    27    20    24    1
@<TRIPOS>MOLECULE
*****
 24 27 0 0 0
SMALL
GASTEIGER

@<TRIPOS>ATOM
      1 O         142.4131  140.6701  165.8867 O.3     1  UNL1       -0.4791
      2 C         141.6953  140.5287  167.1962 C.3     1  UNL1        0.1686
      3 C         140.1974  140.4559  167.2264 C.3     1  UNL1        0.0595
      4 C         139.4796  140.3145  168.5359 C.3     1  UNL1        0.0611
      5 C         139.2033  140.1808  170.0042 C.3     1  UNL1        0.0175
      6 C         140.5186  140.1834  170.7253 C.3     1  UNL1        0.0175
      7 C         141.6077  140.3186  169.7028 C.3     1  UNL1        0.0611
      8 C         142.4754  140.4602  168.4756 C.3     1  UNL1        0.0595
      9 N         140.9656  140.3996  168.3496 N.3     1  UNL1       -0.2750
     10 C         141.6833  140.5410  167.0401 C.3     1  UNL1        0.0720
     11 C         142.3999  139.3644  166.4468 C.3     1  UNL1        0.0160
     12 C         143.5361  138.3854  166.4761 C.3     1  UNL1        0.0014
     13 C         142.5049  138.3053  165.3897 C.3     1  UNL1        0.0014
     14 C         141.7032  144.1490  164.1138 C.ar    1  UNL1        0.0561
     15 C         143.0764  144.7525  164.1137 C.ar    1  UNL1        0.0047
     16 C         144.2285  143.9952  164.7046 C.ar    1  UNL1        0.0033
     17 C         144.0074  142.6345  165.2955 C.ar    1  UNL1        0.0369
     18 C         142.6342  142.0309  165.2957 C.ar    1  UNL1        0.1385
     19 C         141.4821  142.7881  164.7048 C.ar    1  UNL1        0.0414
     20 N         140.8063  146.0985  162.6493 N.am    1  UNL1       -0.3253
     21 C         140.5511  144.9062  163.5230 C.2     1  UNL1        0.2428
     22 O         139.1436  144.4712  163.8058 O.2     1  UNL1       -0.2704
     23 H         140.0501  146.5956  162.2615 H       1  UNL1        0.1453
     24 H         141.7301  146.3841  162.4637 H       1  UNL1        0.1453
@<TRIPOS>BOND
     1    20    21   am
     2    21    22    2
     3    21    14    1
     4    14    15   ar
     5    15    16   ar
     6    16    17   ar
     7    17    18   ar
     8    18     1    1
     9     2     1    1
    10     2     3    1
    11     4     3    1
    12     4     5    1
    13     5     6    1
    14     7     6    1
    15     7     8    1
    16     7     9    1
    17     9    10    1
    18    10    11    1
    19    11    12    1
    20    12    13    1
    21    18    19   ar
    22    19    14   ar
    23     8     2    1
    24    13    11    1
    25     9     4    1
    26    20    23    1
    27    20    24    1
