@<TRIPOS>MOLECULE
*****
 34 38 0 0 0
SMALL
GASTEIGER

@<TRIPOS>ATOM
      1 C         138.9026  139.4565  166.5266 C.ar    1  UNL1        0.0206
      2 C         138.9419  138.0233  166.0855 C.ar    1  UNL1        0.0013
      3 C         138.8111  137.6825  164.6306 C.ar    1  UNL1       -0.0045
      4 C         138.6412  138.7750  163.6167 C.ar    1  UNL1       -0.0247
      5 C         138.6020  140.2080  164.0578 C.ar    1  UNL1       -0.0246
      6 C         138.7327  140.5489  165.5127 C.ar    1  UNL1       -0.0029
      7 C         138.4419  141.4409  163.2185 C.3     1  UNL1        0.0433
      8 C         138.2814  141.5450  161.7306 C.3     1  UNL1        0.0768
      9 N         138.2414  140.4421  160.7149 N.3     1  UNL1       -0.2720
     10 C         138.3520  138.9626  160.9359 C.3     1  UNL1        0.0768
     11 C         138.5300  138.2206  162.2273 C.3     1  UNL1        0.0433
     12 C         140.7482  141.3625  171.0918 C.3     1  UNL1        0.0754
     13 C         139.8817  140.6733  170.0800 C.ar    1  UNL1        0.1548
     14 C         140.1575  140.5667  168.6093 C.ar    1  UNL1        0.0580
     15 C         139.0333  139.7972  167.9815 C.ar    1  UNL1        0.1227
     16 N         138.0628  139.4282  169.0641 N.ar    1  UNL1       -0.0774
     17 O         138.5871  139.9696  170.3609 O.2     1  UNL1       -0.3578
     18 C         138.0678  140.8760  159.2896 C.3     1  UNL1        0.0730
     19 C         139.1563  141.6458  158.6020 C.3     1  UNL1        0.0294
     20 C         139.0316  143.1308  158.4307 C.3     1  UNL1        0.0666
     21 S         140.1364  144.0344  158.8921 S.3     1  UNL1       -0.0756
     22 C         140.3634  144.2530  160.3587 C.ar    1  UNL1        0.1932
     23 N         139.6451  145.2459  161.2236 N.ar    1  UNL1       -0.1221
     24 N         140.1863  145.1237  162.6172 N.ar    1  UNL1       -0.1282
     25 C         141.2390  144.0551  162.6136 C.ar    1  UNL1        0.1676
     26 N         141.3485  143.5170  161.2177 N.ar    1  UNL1       -0.2884
     27 C         142.2796  142.4332  160.7610 C.3     1  UNL1        0.1340
     28 C         142.0414  143.6039  163.7978 C.ar    1  UNL1        0.0465
     29 C         141.4115  142.7302  164.8417 C.ar    1  UNL1        0.0039
     30 C         142.2139  142.2790  166.0260 C.ar    1  UNL1        0.0002
     31 C         143.6463  142.7014  166.1665 C.ar    1  UNL1        0.0009
     32 C         144.2762  143.5752  165.1226 C.ar    1  UNL1        0.0115
     33 C         143.4738  144.0264  163.9383 C.ar    1  UNL1        0.0606
     34 CL        144.1038  144.9001  162.8944 Cl      1  UNL1       -0.0821
@<TRIPOS>BOND
     1    12    13    1
     2    13    14   ar
     3    14    15   ar
     4    15     1    1
     5     1     2   ar
     6     2     3   ar
     7     3     4   ar
     8     4     5   ar
     9     5     6   ar
    10     5     7    1
    11     7     8    1
    12     8     9    1
    13     9    18    1
    14    18    19    1
    15    19    20    1
    16    20    21    1
    17    21    22    1
    18    22    23   ar
    19    23    24   ar
    20    24    25   ar
    21    25    28    1
    22    28    29   ar
    23    29    30   ar
    24    30    31   ar
    25    31    32   ar
    26    32    33   ar
    27    33    34    1
    28    25    26   ar
    29    26    27    1
    30     9    10    1
    31    10    11    1
    32    15    16   ar
    33    16    17   ar
    34    17    13   ar
    35     6     1   ar
    36    26    22   ar
    37    11     4    1
    38    33    28   ar
@<TRIPOS>MOLECULE
*****
 34 38 0 0 0
SMALL
GASTEIGER

@<TRIPOS>ATOM
      1 C         142.9836  142.1566  166.9949 C.ar    1  UNL1        0.0206
      2 C         143.8553  143.1544  166.2916 C.ar    1  UNL1        0.0013
      3 C         144.4055  142.8424  164.9314 C.ar    1  UNL1       -0.0045
      4 C         144.0839  141.5327  164.2746 C.ar    1  UNL1       -0.0247
      5 C         143.2123  140.5351  164.9780 C.ar    1  UNL1       -0.0246
      6 C         142.6621  140.8470  166.3381 C.ar    1  UNL1       -0.0029
      7 C         142.7719  139.1809  164.5061 C.3     1  UNL1        0.0433
      8 C         143.0946  138.4902  163.2142 C.3     1  UNL1        0.0768
      9 N         143.9372  138.9829  162.0754 N.3     1  UNL1       -0.2720
     10 C         144.6654  140.2880  161.9469 C.3     1  UNL1        0.0768
     11 C         144.7307  141.4228  162.9256 C.3     1  UNL1        0.0433
     12 C         139.6241  143.0777  170.9630 C.3     1  UNL1        0.0754
     13 C         140.8893  142.8920  170.1790 C.ar    1  UNL1        0.1548
     14 C         140.9812  142.5601  168.7190 C.ar    1  UNL1        0.0580
     15 C         142.4335  142.4687  168.3550 C.ar    1  UNL1        0.1227
     16 N         143.2391  142.7440  169.5900 N.ar    1  UNL1       -0.0774
     17 O         142.2848  143.0056  170.7172 O.2     1  UNL1       -0.3578
     18 C         144.0692  138.0466  160.9109 C.3     1  UNL1        0.0730
     19 C         142.8413  137.4972  160.2472 C.3     1  UNL1        0.0294
     20 C         142.1077  138.3188  159.2289 C.3     1  UNL1        0.0666
     21 S         140.6789  138.7078  159.4673 S.3     1  UNL1       -0.0756
     22 C         140.2628  139.2541  160.8009 C.ar    1  UNL1        0.1932
     23 N         139.8046  138.4479  161.9799 N.ar    1  UNL1       -0.1221
     24 N         139.4905  139.3979  163.0973 N.ar    1  UNL1       -0.1282
     25 C         139.7545  140.7914  162.6089 C.ar    1  UNL1        0.1676
     26 N         140.2319  140.7025  161.1897 N.ar    1  UNL1       -0.2884
     27 C         140.6116  141.8590  160.3131 C.3     1  UNL1        0.1340
     28 C         139.5731  142.0524  163.4008 C.ar    1  UNL1        0.0465
     29 C         140.7712  142.8388  163.8437 C.ar    1  UNL1        0.0039
     30 C         140.5898  144.0998  164.6355 C.ar    1  UNL1        0.0002
     31 C         139.2104  144.5744  164.9845 C.ar    1  UNL1        0.0009
     32 C         138.0123  143.7880  164.5416 C.ar    1  UNL1        0.0115
     33 C         138.1937  142.5270  163.7497 C.ar    1  UNL1        0.0606
     34 CL        136.9956  141.7406  163.3069 Cl      1  UNL1       -0.0821
@<TRIPOS>BOND
     1    12    13    1
     2    13    14   ar
     3    14    15   ar
     4    15     1    1
     5     1     2   ar
     6     2     3   ar
     7     3     4   ar
     8     4     5   ar
     9     5     6   ar
    10     5     7    1
    11     7     8    1
    12     8     9    1
    13     9    18    1
    14    18    19    1
    15    19    20    1
    16    20    21    1
    17    21    22    1
    18    22    23   ar
    19    23    24   ar
    20    24    25   ar
    21    25    28    1
    22    28    29   ar
    23    29    30   ar
    24    30    31   ar
    25    31    32   ar
    26    32    33   ar
    27    33    34    1
    28    25    26   ar
    29    26    27    1
    30     9    10    1
    31    10    11    1
    32    15    16   ar
    33    16    17   ar
    34    17    13   ar
    35     6     1   ar
    36    26    22   ar
    37    11     4    1
    38    33    28   ar
@<TRIPOS>MOLECULE
*****
 34 38 0 0 0
SMALL
GASTEIGER

@<TRIPOS>ATOM
      1 C         139.8323  139.5920  166.9851 C.ar    1  UNL1        0.0206
      2 C         138.5275  139.1900  166.3637 C.ar    1  UNL1        0.0013
      3 C         138.4898  138.7098  164.9431 C.ar    1  UNL1       -0.0045
      4 C         139.7569  138.6316  164.1440 C.ar    1  UNL1       -0.0247
      5 C         141.0614  139.0336  164.7654 C.ar    1  UNL1       -0.0246
      6 C         141.0993  139.5137  166.1859 C.ar    1  UNL1       -0.0029
      7 C         142.4299  139.0322  164.1509 C.3     1  UNL1        0.0433
      8 C         142.8314  138.6284  162.7631 C.3     1  UNL1        0.0768
      9 N         141.9639  138.1264  161.6473 N.3     1  UNL1       -0.2720
     10 C         140.4804  137.9041  161.6434 C.3     1  UNL1        0.0768
     11 C         139.4982  138.1289  162.7546 C.3     1  UNL1        0.0433
     12 C         141.4368  141.8401  171.4853 C.3     1  UNL1        0.0754
     13 C         140.6074  141.1055  170.4743 C.ar    1  UNL1        0.1548
     14 C         140.9918  140.8309  169.0505 C.ar    1  UNL1        0.0580
     15 C         139.8699  140.0721  168.4057 C.ar    1  UNL1        0.1227
     16 N         138.7923  139.8778  169.4309 N.ar    1  UNL1       -0.0774
     17 O         139.2481  140.5165  170.7092 O.2     1  UNL1       -0.3578
     18 C         142.6736  137.8040  160.3658 C.3     1  UNL1        0.0730
     19 C         142.8158  138.8528  159.3028 C.3     1  UNL1        0.0294
     20 C         143.8593  139.9218  159.4387 C.3     1  UNL1        0.0666
     21 S         143.4692  141.3670  159.3436 S.3     1  UNL1       -0.0756
     22 C         143.2369  142.1649  160.5923 C.ar    1  UNL1        0.1932
     23 N         144.2431  143.0397  161.2796 N.ar    1  UNL1       -0.1221
     24 N         143.5857  143.6435  162.4851 N.ar    1  UNL1       -0.1282
     25 C         142.1732  143.1419  162.5429 C.ar    1  UNL1        0.1676
     26 N         141.9576  142.2280  161.3730 N.ar    1  UNL1       -0.2884
     27 C         140.6861  141.5045  161.0422 C.3     1  UNL1        0.1340
     28 C         141.1551  143.4926  163.5871 C.ar    1  UNL1        0.0465
     29 C         141.1915  142.8182  164.9265 C.ar    1  UNL1        0.0039
     30 C         140.1734  143.1689  165.9707 C.ar    1  UNL1        0.0002
     31 C         139.1188  144.1939  165.6756 C.ar    1  UNL1        0.0009
     32 C         139.0824  144.8683  164.3363 C.ar    1  UNL1        0.0115
     33 C         140.1005  144.5176  163.2920 C.ar    1  UNL1        0.0606
     34 CL        140.0641  145.1920  161.9527 Cl      1  UNL1       -0.0821
@<TRIPOS>BOND
     1    12    13    1
     2    13    14   ar
     3    14    15   ar
     4    15     1    1
     5     1     2   ar
     6     2     3   ar
     7     3     4   ar
     8     4     5   ar
     9     5     6   ar
    10     5     7    1
    11     7     8    1
    12     8     9    1
    13     9    18    1
    14    18    19    1
    15    19    20    1
    16    20    21    1
    17    21    22    1
    18    22    23   ar
    19    23    24   ar
    20    24    25   ar
    21    25    28    1
    22    28    29   ar
    23    29    30   ar
    24    30    31   ar
    25    31    32   ar
    26    32    33   ar
    27    33    34    1
    28    25    26   ar
    29    26    27    1
    30     9    10    1
    31    10    11    1
    32    15    16   ar
    33    16    17   ar
    34    17    13   ar
    35     6     1   ar
    36    26    22   ar
    37    11     4    1
    38    33    28   ar
@<TRIPOS>MOLECULE
*****
 34 38 0 0 0
SMALL
GASTEIGER

@<TRIPOS>ATOM
      1 C         139.2747  140.0198  166.7673 C.ar    1  UNL1        0.0206
      2 C         138.8117  138.7232  166.1720 C.ar    1  UNL1        0.0013
      3 C         138.5163  138.6350  164.7040 C.ar    1  UNL1       -0.0045
      4 C         138.6839  139.8436  163.8314 C.ar    1  UNL1       -0.0247
      5 C         139.1468  141.1401  164.4267 C.ar    1  UNL1       -0.0246
      6 C         139.4423  141.2283  165.8946 C.ar    1  UNL1       -0.0029
      7 C         139.3778  142.4543  163.7413 C.3     1  UNL1        0.0433
      8 C         139.2028  142.7963  162.2913 C.3     1  UNL1        0.0768
      9 N         138.7536  141.9088  161.1687 N.3     1  UNL1       -0.2720
     10 C         138.3685  140.4599  161.2186 C.3     1  UNL1        0.0768
     11 C         138.3375  139.5408  162.4036 C.3     1  UNL1        0.0433
     12 C         141.7191  140.9728  171.3496 C.3     1  UNL1        0.0754
     13 C         140.6937  140.5459  170.3416 C.ar    1  UNL1        0.1548
     14 C         140.8263  140.6491  168.8509 C.ar    1  UNL1        0.0580
     15 C         139.5701  140.1079  168.2353 C.ar    1  UNL1        0.1227
     16 N         138.6612  139.6702  169.3454 N.ar    1  UNL1       -0.0774
     17 O         139.3556  139.9409  170.6470 O.2     1  UNL1       -0.3578
     18 C         138.6798  142.5556  159.8174 C.3     1  UNL1        0.0730
     19 C         139.5742  143.7147  159.4907 C.3     1  UNL1        0.0294
     20 C         140.6862  143.5475  158.4979 C.3     1  UNL1        0.0666
     21 S         142.1134  143.6693  158.9428 S.3     1  UNL1       -0.0756
     22 C         142.4901  143.3331  160.3553 C.ar    1  UNL1        0.1932
     23 N         142.7291  144.3169  161.4620 N.ar    1  UNL1       -0.1221
     24 N         143.0805  143.5460  162.6998 N.ar    1  UNL1       -0.1282
     25 C         143.0587  142.0856  162.3580 C.ar    1  UNL1        0.1676
     26 N         142.6937  141.9540  160.9090 N.ar    1  UNL1       -0.2884
     27 C         142.5566  140.6690  160.1475 C.3     1  UNL1        0.1340
     28 C         143.3505  140.9552  163.2998 C.ar    1  UNL1        0.0465
     29 C         142.2462  140.0388  163.7366 C.ar    1  UNL1        0.0039
     30 C         142.5380  138.9084  164.6785 C.ar    1  UNL1        0.0002
     31 C         143.9341  138.6944  165.1835 C.ar    1  UNL1        0.0009
     32 C         145.0384  139.6108  164.7467 C.ar    1  UNL1        0.0115
     33 C         144.7465  140.7411  163.8049 C.ar    1  UNL1        0.0606
     34 CL        145.8508  141.6575  163.3680 Cl      1  UNL1       -0.0821
@<TRIPOS>BOND
     1    12    13    1
     2    13    14   ar
     3    14    15   ar
     4    15     1    1
     5     1     2   ar
     6     2     3   ar
     7     3     4   ar
     8     4     5   ar
     9     5     6   ar
    10     5     7    1
    11     7     8    1
    12     8     9    1
    13     9    18    1
    14    18    19    1
    15    19    20    1
    16    20    21    1
    17    21    22    1
    18    22    23   ar
    19    23    24   ar
    20    24    25   ar
    21    25    28    1
    22    28    29   ar
    23    29    30   ar
    24    30    31   ar
    25    31    32   ar
    26    32    33   ar
    27    33    34    1
    28    25    26   ar
    29    26    27    1
    30     9    10    1
    31    10    11    1
    32    15    16   ar
    33    16    17   ar
    34    17    13   ar
    35     6     1   ar
    36    26    22   ar
    37    11     4    1
    38    33    28   ar
@<TRIPOS>MOLECULE
*****
 34 38 0 0 0
SMALL
GASTEIGER

@<TRIPOS>ATOM
      1 C         141.8963  140.0690  167.6051 C.ar    1  UNL1        0.0206
      2 C         142.8934  139.0740  167.0897 C.ar    1  UNL1        0.0013
      3 C         142.6207  138.3298  165.8161 C.ar    1  UNL1       -0.0045
      4 C         141.3508  138.5806  165.0581 C.ar    1  UNL1       -0.0247
      5 C         140.3538  139.5756  165.5735 C.ar    1  UNL1       -0.0246
      6 C         140.6264  140.3198  166.8470 C.ar    1  UNL1       -0.0029
      7 C         139.0358  139.9733  164.9779 C.3     1  UNL1        0.0433
      8 C         138.3894  139.4742  163.7196 C.3     1  UNL1        0.0768
      9 N         138.9014  138.4542  162.7464 N.3     1  UNL1       -0.2720
     10 C         140.1862  137.6812  162.7908 C.3     1  UNL1        0.0768
     11 C         141.2763  137.7375  163.8197 C.3     1  UNL1        0.0433
     12 C         143.5010  143.7668  171.0156 C.3     1  UNL1        0.0754
     13 C         142.9066  142.5129  170.4463 C.ar    1  UNL1        0.1548
     14 C         142.8438  142.1480  168.9926 C.ar    1  UNL1        0.0580
     15 C         142.1690  140.8132  168.8786 C.ar    1  UNL1        0.1227
     16 N         141.8148  140.3531  170.2617 N.ar    1  UNL1       -0.0774
     17 O         142.2707  141.4036  171.2305 O.2     1  UNL1       -0.3578
     18 C         138.0108  138.1693  161.5734 C.3     1  UNL1        0.0730
     19 C         137.4772  139.3001  160.7447 C.3     1  UNL1        0.0294
     20 C         138.3921  140.0522  159.8243 C.3     1  UNL1        0.0666
     21 S         138.5577  141.5350  159.9783 S.3     1  UNL1       -0.0756
     22 C         139.1368  142.0977  161.2424 C.ar    1  UNL1        0.1932
     23 N         138.3642  142.7363  162.3583 N.ar    1  UNL1       -0.1221
     24 N         139.3401  143.1539  163.4182 N.ar    1  UNL1       -0.1282
     25 C         140.7159  142.7734  162.9572 C.ar    1  UNL1        0.1676
     26 N         140.5903  142.1206  161.6125 N.ar    1  UNL1       -0.2884
     27 C         141.7198  141.5848  160.7836 C.3     1  UNL1        0.1340
     28 C         141.9931  143.0049  163.7090 C.ar    1  UNL1        0.0465
     29 C         142.7353  141.8442  164.3021 C.ar    1  UNL1        0.0039
     30 C         144.0125  142.0757  165.0539 C.ar    1  UNL1        0.0002
     31 C         144.5475  143.4680  165.2125 C.ar    1  UNL1        0.0009
     32 C         143.8053  144.6288  164.6194 C.ar    1  UNL1        0.0115
     33 C         142.5282  144.3972  163.8676 C.ar    1  UNL1        0.0606
     34 CL        141.7860  145.5580  163.2745 Cl      1  UNL1       -0.0821
@<TRIPOS>BOND
     1    12    13    1
     2    13    14   ar
     3    14    15   ar
     4    15     1    1
     5     1     2   ar
     6     2     3   ar
     7     3     4   ar
     8     4     5   ar
     9     5     6   ar
    10     5     7    1
    11     7     8    1
    12     8     9    1
    13     9    18    1
    14    18    19    1
    15    19    20    1
    16    20    21    1
    17    21    22    1
    18    22    23   ar
    19    23    24   ar
    20    24    25   ar
    21    25    28    1
    22    28    29   ar
    23    29    30   ar
    24    30    31   ar
    25    31    32   ar
    26    32    33   ar
    27    33    34    1
    28    25    26   ar
    29    26    27    1
    30     9    10    1
    31    10    11    1
    32    15    16   ar
    33    16    17   ar
    34    17    13   ar
    35     6     1   ar
    36    26    22   ar
    37    11     4    1
    38    33    28   ar
@<TRIPOS>MOLECULE
*****
 34 38 0 0 0
SMALL
GASTEIGER

@<TRIPOS>ATOM
      1 C         139.8587  140.8420  166.8604 C.ar    1  UNL1        0.0206
      2 C         138.7495  140.1708  166.1058 C.ar    1  UNL1        0.0013
      3 C         138.2594  140.7561  164.8146 C.ar    1  UNL1       -0.0045
      4 C         138.8784  142.0126  164.2780 C.ar    1  UNL1       -0.0247
      5 C         139.9875  142.6838  165.0325 C.ar    1  UNL1       -0.0246
      6 C         140.4776  142.0985  166.3237 C.ar    1  UNL1       -0.0029
      7 C         140.7372  143.9337  164.6779 C.3     1  UNL1        0.0433
      8 C         140.5629  144.8211  163.4810 C.3     1  UNL1        0.0768
      9 N         139.5960  144.6777  162.3434 N.3     1  UNL1       -0.2720
     10 C         138.5644  143.6116  162.1215 C.3     1  UNL1        0.0768
     11 C         138.2450  142.4255  162.9824 C.3     1  UNL1        0.0433
     12 C         143.0222  138.8667  170.5981 C.3     1  UNL1        0.0754
     13 C         141.8029  139.3487  169.8696 C.ar    1  UNL1        0.1548
     14 C         141.7695  139.9010  168.4753 C.ar    1  UNL1        0.0580
     15 C         140.3487  140.2566  168.1515 C.ar    1  UNL1        0.1227
     16 N         139.5040  139.9242  169.3457 N.ar    1  UNL1       -0.0774
     17 O         140.4027  139.3631  170.4074 O.2     1  UNL1       -0.3578
     18 C         139.6704  145.7411  161.2881 C.3     1  UNL1        0.0730
     19 C         140.6196  145.5898  160.1365 C.3     1  UNL1        0.0294
     20 C         140.4410  144.4652  159.1600 C.3     1  UNL1        0.0666
     21 S         141.4362  143.3438  159.1175 S.3     1  UNL1       -0.0756
     22 C         141.7853  142.6028  160.3741 C.ar    1  UNL1        0.1932
     23 N         142.8415  142.9948  161.3643 N.ar    1  UNL1       -0.1221
     24 N         142.8485  141.9740  162.4633 N.ar    1  UNL1       -0.1282
     25 C         141.7965  140.9509  162.1522 C.ar    1  UNL1        0.1676
     26 N         141.1394  141.3395  160.8609 N.ar    1  UNL1       -0.2884
     27 C         140.0311  140.5955  160.1768 C.3     1  UNL1        0.1340
     28 C         141.4606  139.7501  162.9859 C.ar    1  UNL1        0.0465
     29 C         140.3857  138.8039  162.5394 C.ar    1  UNL1        0.0039
     30 C         140.0498  137.6031  163.3732 C.ar    1  UNL1        0.0002
     31 C         140.7887  137.3483  164.6534 C.ar    1  UNL1        0.0009
     32 C         141.8636  138.2945  165.0999 C.ar    1  UNL1        0.0115
     33 C         142.1995  139.4953  164.2662 C.ar    1  UNL1        0.0606
     34 CL        143.2744  140.4415  164.7127 Cl      1  UNL1       -0.0821
@<TRIPOS>BOND
     1    12    13    1
     2    13    14   ar
     3    14    15   ar
     4    15     1    1
     5     1     2   ar
     6     2     3   ar
     7     3     4   ar
     8     4     5   ar
     9     5     6   ar
    10     5     7    1
    11     7     8    1
    12     8     9    1
    13     9    18    1
    14    18    19    1
    15    19    20    1
    16    20    21    1
    17    21    22    1
    18    22    23   ar
    19    23    24   ar
    20    24    25   ar
    21    25    28    1
    22    28    29   ar
    23    29    30   ar
    24    30    31   ar
    25    31    32   ar
    26    32    33   ar
    27    33    34    1
    28    25    26   ar
    29    26    27    1
    30     9    10    1
    31    10    11    1
    32    15    16   ar
    33    16    17   ar
    34    17    13   ar
    35     6     1   ar
    36    26    22   ar
    37    11     4    1
    38    33    28   ar
@<TRIPOS>MOLECULE
*****
 34 38 0 0 0
SMALL
GASTEIGER

@<TRIPOS>ATOM
      1 C         139.6522  139.6377  166.8241 C.ar    1  UNL1        0.0206
      2 C         138.3652  139.3903  166.0944 C.ar    1  UNL1        0.0013
      3 C         138.3887  138.9476  164.6614 C.ar    1  UNL1       -0.0045
      4 C         139.6992  138.7522  163.9582 C.ar    1  UNL1       -0.0247
      5 C         140.9861  138.9995  164.6879 C.ar    1  UNL1       -0.0246
      6 C         140.9627  139.4423  166.1208 C.ar    1  UNL1       -0.0029
      7 C         142.3907  138.8657  164.1787 C.3     1  UNL1        0.0433
      8 C         142.8552  138.4514  162.8138 C.3     1  UNL1        0.0768
      9 N         142.0298  138.0687  161.6213 N.3     1  UNL1       -0.2720
     10 C         140.5361  138.0057  161.4989 C.3     1  UNL1        0.0768
     11 C         139.4989  138.3099  162.5389 C.3     1  UNL1        0.0433
     12 C         140.9146  142.0134  171.3675 C.3     1  UNL1        0.0754
     13 C         140.2089  141.1725  170.3455 C.ar    1  UNL1        0.1548
     14 C         140.6125  141.0052  168.9104 C.ar    1  UNL1        0.0580
     15 C         139.6287  140.0805  168.2571 C.ar    1  UNL1        0.1227
     16 N         138.6171  139.6761  169.2883 N.ar    1  UNL1       -0.0774
     17 O         138.9757  140.3510  170.5789 O.2     1  UNL1       -0.3578
     18 C         142.8000  137.7003  160.3879 C.3     1  UNL1        0.0730
     19 C         143.1531  138.7547  159.3812 C.3     1  UNL1        0.0294
     20 C         142.1151  139.2498  158.4181 C.3     1  UNL1        0.0666
     21 S         141.8541  140.7211  158.2876 S.3     1  UNL1       -0.0756
     22 C         140.7261  141.3531  159.0480 C.ar    1  UNL1        0.1932
     23 N         139.3556  141.6441  158.5123 N.ar    1  UNL1       -0.1221
     24 N         138.5530  142.2759  159.6108 N.ar    1  UNL1       -0.1282
     25 C         139.4275  142.3753  160.8254 C.ar    1  UNL1        0.1676
     26 N         140.7706  141.8050  160.4776 N.ar    1  UNL1       -0.2884
     27 C         141.9509  141.7043  161.3978 C.3     1  UNL1        0.1340
     28 C         139.0290  142.9451  162.1545 C.ar    1  UNL1        0.0465
     29 C         138.1578  142.1494  163.0808 C.ar    1  UNL1        0.0039
     30 C         137.7593  142.7192  164.4099 C.ar    1  UNL1        0.0002
     31 C         138.2319  144.0845  164.8128 C.ar    1  UNL1        0.0009
     32 C         139.1031  144.8801  163.8866 C.ar    1  UNL1        0.0115
     33 C         139.5016  144.3104  162.5575 C.ar    1  UNL1        0.0606
     34 CL        140.3729  145.1060  161.6312 Cl      1  UNL1       -0.0821
@<TRIPOS>BOND
     1    12    13    1
     2    13    14   ar
     3    14    15   ar
     4    15     1    1
     5     1     2   ar
     6     2     3   ar
     7     3     4   ar
     8     4     5   ar
     9     5     6   ar
    10     5     7    1
    11     7     8    1
    12     8     9    1
    13     9    18    1
    14    18    19    1
    15    19    20    1
    16    20    21    1
    17    21    22    1
    18    22    23   ar
    19    23    24   ar
    20    24    25   ar
    21    25    28    1
    22    28    29   ar
    23    29    30   ar
    24    30    31   ar
    25    31    32   ar
    26    32    33   ar
    27    33    34    1
    28    25    26   ar
    29    26    27    1
    30     9    10    1
    31    10    11    1
    32    15    16   ar
    33    16    17   ar
    34    17    13   ar
    35     6     1   ar
    36    26    22   ar
    37    11     4    1
    38    33    28   ar
@<TRIPOS>MOLECULE
*****
 34 38 0 0 0
SMALL
GASTEIGER

@<TRIPOS>ATOM
      1 C         140.8691  139.1557  165.2566 C.ar    1  UNL1        0.0206
      2 C         139.5278  138.4999  165.1123 C.ar    1  UNL1        0.0013
      3 C         138.9462  138.2741  163.7481 C.ar    1  UNL1       -0.0045
      4 C         139.7060  138.7042  162.5283 C.ar    1  UNL1       -0.0247
      5 C         141.0472  139.3599  162.6727 C.ar    1  UNL1       -0.0246
      6 C         141.6288  139.5857  164.0367 C.ar    1  UNL1       -0.0029
      7 C         141.9639  139.8610  161.5963 C.3     1  UNL1        0.0433
      8 C         141.7657  139.8301  160.1097 C.3     1  UNL1        0.0768
      9 N         140.6019  139.2904  159.3325 N.3     1  UNL1       -0.2720
     10 C         139.3488  138.6483  159.8497 C.3     1  UNL1        0.0768
     11 C         138.9500  138.3875  161.2720 C.3     1  UNL1        0.0433
     12 C         141.3776  140.4796  170.3427 C.3     1  UNL1        0.0754
     13 C         141.6844  139.9900  168.9586 C.ar    1  UNL1        0.1548
     14 C         140.7225  139.9367  167.8087 C.ar    1  UNL1        0.0580
     15 C         141.4507  139.3815  166.6207 C.ar    1  UNL1        0.1227
     16 N         142.8625  139.0916  167.0362 N.ar    1  UNL1       -0.0774
     17 O         143.0069  139.4677  168.4810 O.2     1  UNL1       -0.3578
     18 C         140.7047  139.4083  157.8407 C.3     1  UNL1        0.0730
     19 C         141.5590  140.4795  157.2300 C.3     1  UNL1        0.0294
     20 C         140.9286  141.7406  156.7178 C.3     1  UNL1        0.0666
     21 S         140.9004  142.9683  157.5790 S.3     1  UNL1       -0.0756
     22 C         140.0268  143.0096  158.7977 C.ar    1  UNL1        0.1932
     23 N         138.5397  142.8154  158.8235 N.ar    1  UNL1       -0.1221
     24 N         138.0808  142.9381  160.2463 N.ar    1  UNL1       -0.1282
     25 C         139.2843  143.2082  161.0998 C.ar    1  UNL1        0.1676
     26 N         140.4871  143.2523  160.2045 N.ar    1  UNL1       -0.2884
     27 C         141.9017  143.4964  160.6398 C.3     1  UNL1        0.1340
     28 C         139.2851  143.4003  162.5875 C.ar    1  UNL1        0.0465
     29 C         139.0952  142.2219  163.4960 C.ar    1  UNL1        0.0039
     30 C         139.0959  142.4141  164.9836 C.ar    1  UNL1        0.0002
     31 C         139.2865  143.7845  165.5628 C.ar    1  UNL1        0.0009
     32 C         139.4764  144.9629  164.6543 C.ar    1  UNL1        0.0115
     33 C         139.4757  144.7707  163.1667 C.ar    1  UNL1        0.0606
     34 CL        139.6656  145.9491  162.2581 Cl      1  UNL1       -0.0821
@<TRIPOS>BOND
     1    12    13    1
     2    13    14   ar
     3    14    15   ar
     4    15     1    1
     5     1     2   ar
     6     2     3   ar
     7     3     4   ar
     8     4     5   ar
     9     5     6   ar
    10     5     7    1
    11     7     8    1
    12     8     9    1
    13     9    18    1
    14    18    19    1
    15    19    20    1
    16    20    21    1
    17    21    22    1
    18    22    23   ar
    19    23    24   ar
    20    24    25   ar
    21    25    28    1
    22    28    29   ar
    23    29    30   ar
    24    30    31   ar
    25    31    32   ar
    26    32    33   ar
    27    33    34    1
    28    25    26   ar
    29    26    27    1
    30     9    10    1
    31    10    11    1
    32    15    16   ar
    33    16    17   ar
    34    17    13   ar
    35     6     1   ar
    36    26    22   ar
    37    11     4    1
    38    33    28   ar
@<TRIPOS>MOLECULE
*****
 34 38 0 0 0
SMALL
GASTEIGER

@<TRIPOS>ATOM
      1 C         142.8775  140.3152  166.1870 C.ar    1  UNL1        0.0206
      2 C         143.1888  141.6784  165.6440 C.ar    1  UNL1        0.0013
      3 C         143.2986  141.8886  164.1628 C.ar    1  UNL1       -0.0045
      4 C         143.0970  140.7356  163.2247 C.ar    1  UNL1       -0.0247
      5 C         142.7856  139.3726  163.7677 C.ar    1  UNL1       -0.0246
      6 C         142.6759  139.1623  165.2488 C.ar    1  UNL1       -0.0029
      7 C         142.5500  138.0970  163.0142 C.3     1  UNL1        0.0433
      8 C         142.5676  137.8698  161.5315 C.3     1  UNL1        0.0768
      9 N         142.8251  138.8618  160.4364 N.3     1  UNL1       -0.2720
     10 C         143.1287  140.3261  160.5532 C.3     1  UNL1        0.0768
     11 C         143.2497  141.1600  161.7941 C.3     1  UNL1        0.0433
     12 C         141.9514  141.1344  171.3203 C.3     1  UNL1        0.0754
     13 C         142.3421  140.4815  170.0277 C.ar    1  UNL1        0.1548
     14 C         142.2877  141.1142  168.6686 C.ar    1  UNL1        0.0580
     15 C         142.7677  140.1050  167.6681 C.ar    1  UNL1        0.1227
     16 N         143.1187  138.8487  168.4087 N.ar    1  UNL1       -0.0774
     17 O         142.8557  139.0814  169.8669 O.2     1  UNL1       -0.3578
     18 C         142.7721  138.3175  159.0396 C.3     1  UNL1        0.0730
     19 C         142.0288  139.0637  157.9715 C.3     1  UNL1        0.0294
     20 C         140.6118  138.6946  157.6463 C.3     1  UNL1        0.0666
     21 S         139.4840  139.5684  158.1092 S.3     1  UNL1       -0.0756
     22 C         139.5495  140.2273  159.4552 C.ar    1  UNL1        0.1932
     23 N         139.8425  141.6754  159.7146 N.ar    1  UNL1       -0.1221
     24 N         139.8076  141.8969  161.1978 N.ar    1  UNL1       -0.1282
     25 C         139.4931  140.5857  161.8549 C.ar    1  UNL1        0.1676
     26 N         139.3336  139.5538  160.7780 N.ar    1  UNL1       -0.2884
     27 C         139.0142  138.1032  160.9871 C.3     1  UNL1        0.1340
     28 C         139.3612  140.3481  163.3301 C.ar    1  UNL1        0.0465
     29 C         139.0640  138.9707  163.8443 C.ar    1  UNL1        0.0039
     30 C         138.9321  138.7330  165.3195 C.ar    1  UNL1        0.0002
     31 C         139.0975  139.8727  166.2805 C.ar    1  UNL1        0.0009
     32 C         139.3947  141.2501  165.7663 C.ar    1  UNL1        0.0115
     33 C         139.5266  141.4878  164.2912 C.ar    1  UNL1        0.0606
     34 CL        139.8239  142.8652  163.7770 Cl      1  UNL1       -0.0821
@<TRIPOS>BOND
     1    12    13    1
     2    13    14   ar
     3    14    15   ar
     4    15     1    1
     5     1     2   ar
     6     2     3   ar
     7     3     4   ar
     8     4     5   ar
     9     5     6   ar
    10     5     7    1
    11     7     8    1
    12     8     9    1
    13     9    18    1
    14    18    19    1
    15    19    20    1
    16    20    21    1
    17    21    22    1
    18    22    23   ar
    19    23    24   ar
    20    24    25   ar
    21    25    28    1
    22    28    29   ar
    23    29    30   ar
    24    30    31   ar
    25    31    32   ar
    26    32    33   ar
    27    33    34    1
    28    25    26   ar
    29    26    27    1
    30     9    10    1
    31    10    11    1
    32    15    16   ar
    33    16    17   ar
    34    17    13   ar
    35     6     1   ar
    36    26    22   ar
    37    11     4    1
    38    33    28   ar
