@<TRIPOS>MOLECULE
*****
 43 49 0 0 0
SMALL
GASTEIGER

@<TRIPOS>ATOM
      1 C         140.1021  140.4201  164.8448 C.ar    1  UNL1        0.0156
      2 C         141.3257  140.3475  163.9804 C.ar    1  UNL1        0.0011
      3 C         141.2533  139.6961  162.6312 C.ar    1  UNL1       -0.0029
      4 C         139.9571  139.1172  162.1465 C.ar    1  UNL1       -0.0061
      5 C         138.7335  139.1898  163.0109 C.ar    1  UNL1       -0.0029
      6 C         138.8059  139.8412  164.3601 C.ar    1  UNL1        0.0011
      7 O         140.1918  144.5070  170.3711 O.2     1  UNL1       -0.2651
      8 C         140.3918  143.0261  170.2416 C.ar    1  UNL1        0.2806
      9 N         140.6641  142.1966  171.4613 N.ar    1  UNL1       -0.2062
     10 C         140.8641  140.7156  171.3319 C.ar    1  UNL1        0.1037
     11 C         140.7916  140.0641  169.9827 C.ar    1  UNL1        0.0378
     12 C         140.5193  140.8936  168.7630 C.ar    1  UNL1        0.0628
     13 N         140.4469  140.2421  167.4138 N.ar    1  UNL1       -0.3530
     14 C         140.1745  141.0716  166.1941 C.ar    1  UNL1        0.0565
     15 C         139.9746  142.5526  166.3235 C.ar    1  UNL1        0.0158
     16 C         140.0470  143.2041  167.6727 C.ar    1  UNL1        0.0077
     17 C         140.3194  142.3746  168.8925 C.ar    1  UNL1        0.0735
     18 H         140.5781  139.2701  167.3288 H       1  UNL1        0.1659
     19 C         139.7022  143.3820  165.1037 C.ar    1  UNL1        0.0014
     20 C         138.2974  143.5388  164.6017 C.ar    1  UNL1        0.0000
     21 C         138.0250  144.3682  163.3819 C.ar    1  UNL1        0.0000
     22 C         139.1574  145.0409  162.6642 C.ar    1  UNL1        0.0000
     23 C         140.5622  144.8842  163.1663 C.ar    1  UNL1        0.0000
     24 C         140.8346  144.0548  164.3860 C.ar    1  UNL1        0.0000
     25 C         139.8847  138.4657  160.7972 C.3     1  UNL1        0.0991
     26 N         140.7507  138.9617  159.6774 N.3     1  UNL1       -0.2689
     27 C         140.3311  140.1603  158.8792 C.3     1  UNL1        0.0728
     28 C         141.1970  140.6563  157.7594 C.3     1  UNL1        0.0249
     29 C         142.4827  139.9537  157.4378 C.3     1  UNL1        0.0613
     30 C         142.9024  138.7550  158.2360 C.3     1  UNL1        0.0249
     31 C         142.0363  138.2591  159.3559 C.3     1  UNL1        0.0728
     32 C         143.3487  140.4497  156.3180 C.ar    1  UNL1        0.1397
     33 N         142.8714  140.9177  154.9752 N.ar    1  UNL1       -0.1335
     34 N         144.0717  141.3220  154.1716 N.ar    1  UNL1       -0.1261
     35 C         145.2910  141.1039  155.0178 C.ar    1  UNL1        0.1990
     36 N         144.8441  140.5647  156.3443 N.ar    1  UNL1       -0.3221
     37 H         145.4295  140.3280  157.0997 H       1  UNL1        0.1687
     38 C         146.7082  141.3769  154.6092 C.ar    1  UNL1        0.1988
     39 N         147.7771  141.5109  155.6529 N.ar    1  UNL1       -0.2224
     40 C         149.1943  141.7839  155.2443 C.ar    1  UNL1        0.1023
     41 C         149.5426  141.9230  153.7921 C.ar    1  UNL1        0.0414
     42 C         148.4737  141.7891  152.7483 C.ar    1  UNL1        0.1023
     43 N         147.0565  141.5160  153.1569 N.ar    1  UNL1       -0.2224
@<TRIPOS>BOND
     1     7     8    2
     2     8     9   ar
     3     9    10   ar
     4    10    11   ar
     5    11    12   ar
     6    12    13   ar
     7    13    14   ar
     8    14     1    1
     9     1     2   ar
    10     2     3   ar
    11     3     4   ar
    12     4    25    1
    13    25    26    1
    14    26    27    1
    15    27    28    1
    16    28    29    1
    17    29    32    1
    18    32    33   ar
    19    33    34   ar
    20    34    35   ar
    21    35    38    1
    22    38    39   ar
    23    39    40   ar
    24    40    41   ar
    25    41    42   ar
    26    42    43   ar
    27    35    36   ar
    28    29    30    1
    29    30    31    1
    30     4     5   ar
    31     5     6   ar
    32    14    15   ar
    33    15    19    1
    34    19    20   ar
    35    20    21   ar
    36    21    22   ar
    37    22    23   ar
    38    23    24   ar
    39    15    16   ar
    40    16    17   ar
    41    17     8   ar
    42    17    12    1
    43     6     1   ar
    44    24    19   ar
    45    31    26    1
    46    36    32   ar
    47    43    38   ar
    48    13    18    1
    49    36    37    1
@<TRIPOS>MOLECULE
*****
 43 49 0 0 0
SMALL
GASTEIGER

@<TRIPOS>ATOM
      1 C         142.6270  141.2916  165.0575 C.ar    1  UNL1        0.0156
      2 C         141.8370  142.0115  164.0051 C.ar    1  UNL1        0.0011
      3 C         142.3773  142.1288  162.6108 C.ar    1  UNL1       -0.0029
      4 C         143.7076  141.5261  162.2688 C.ar    1  UNL1       -0.0061
      5 C         144.4977  140.8062  163.3211 C.ar    1  UNL1       -0.0029
      6 C         143.9574  140.6889  164.7155 C.ar    1  UNL1        0.0011
      7 O         139.4126  139.8011  170.9478 O.2     1  UNL1       -0.2651
      8 C         140.4659  140.8222  170.6351 C.ar    1  UNL1        0.2806
      9 N         140.9790  141.7260  171.7167 N.ar    1  UNL1       -0.2062
     10 C         142.0323  142.7471  171.4040 C.ar    1  UNL1        0.1037
     11 C         142.5726  142.8644  170.0096 C.ar    1  UNL1        0.0378
     12 C         142.0595  141.9607  168.9280 C.ar    1  UNL1        0.0628
     13 N         142.5998  142.0780  167.5335 N.ar    1  UNL1       -0.3530
     14 C         142.0868  141.1742  166.4519 C.ar    1  UNL1        0.0565
     15 C         141.0334  140.1531  166.7647 C.ar    1  UNL1        0.0158
     16 C         140.4931  140.0358  168.1590 C.ar    1  UNL1        0.0077
     17 C         141.0062  140.9396  169.2407 C.ar    1  UNL1        0.0735
     18 H         143.2911  142.7482  167.3283 H       1  UNL1        0.1659
     19 C         140.5204  139.2493  165.6830 C.ar    1  UNL1        0.0014
     20 C         141.3640  138.1087  165.1958 C.ar    1  UNL1        0.0000
     21 C         140.8511  137.2050  164.1141 C.ar    1  UNL1        0.0000
     22 C         139.4944  137.4418  163.5197 C.ar    1  UNL1        0.0000
     23 C         138.6508  138.5823  164.0069 C.ar    1  UNL1        0.0000
     24 C         139.1638  139.4861  165.0885 C.ar    1  UNL1        0.0000
     25 C         144.2479  141.6435  160.8743 C.3     1  UNL1        0.0991
     26 N         143.8385  140.6523  159.8255 N.3     1  UNL1       -0.2689
     27 C         143.2290  139.3424  160.2287 C.3     1  UNL1        0.0728
     28 C         142.8196  138.3513  159.1799 C.3     1  UNL1        0.0249
     29 C         143.0198  138.6700  157.7278 C.3     1  UNL1        0.0613
     30 C         143.6294  139.9800  157.3247 C.3     1  UNL1        0.0249
     31 C         144.0387  140.9711  158.3736 C.3     1  UNL1        0.0728
     32 C         142.6104  137.6789  156.6790 C.ar    1  UNL1        0.1397
     33 N         142.1733  138.0040  155.2815 N.ar    1  UNL1       -0.1335
     34 N         141.8590  136.7147  154.5823 N.ar    1  UNL1       -0.1261
     35 C         142.1019  135.5927  155.5478 C.ar    1  UNL1        0.1990
     36 N         142.5663  136.1886  156.8436 N.ar    1  UNL1       -0.3221
     37 H         142.8009  135.6893  157.6590 H       1  UNL1        0.1687
     38 C         141.9134  134.1313  155.2668 C.ar    1  UNL1        0.1988
     39 N         142.3168  133.1125  156.2910 N.ar    1  UNL1       -0.2224
     40 C         142.1284  131.6512  156.0100 C.ar    1  UNL1        0.1023
     41 C         141.5365  131.2087  154.7048 C.ar    1  UNL1        0.0414
     42 C         141.1330  132.2275  153.6804 C.ar    1  UNL1        0.1023
     43 N         141.3215  133.6888  153.9615 N.ar    1  UNL1       -0.2224
@<TRIPOS>BOND
     1     7     8    2
     2     8     9   ar
     3     9    10   ar
     4    10    11   ar
     5    11    12   ar
     6    12    13   ar
     7    13    14   ar
     8    14     1    1
     9     1     2   ar
    10     2     3   ar
    11     3     4   ar
    12     4    25    1
    13    25    26    1
    14    26    27    1
    15    27    28    1
    16    28    29    1
    17    29    32    1
    18    32    33   ar
    19    33    34   ar
    20    34    35   ar
    21    35    38    1
    22    38    39   ar
    23    39    40   ar
    24    40    41   ar
    25    41    42   ar
    26    42    43   ar
    27    35    36   ar
    28    29    30    1
    29    30    31    1
    30     4     5   ar
    31     5     6   ar
    32    14    15   ar
    33    15    19    1
    34    19    20   ar
    35    20    21   ar
    36    21    22   ar
    37    22    23   ar
    38    23    24   ar
    39    15    16   ar
    40    16    17   ar
    41    17     8   ar
    42    17    12    1
    43     6     1   ar
    44    24    19   ar
    45    31    26    1
    46    36    32   ar
    47    43    38   ar
    48    13    18    1
    49    36    37    1
@<TRIPOS>MOLECULE
*****
 43 49 0 0 0
SMALL
GASTEIGER

@<TRIPOS>ATOM
      1 C         142.4134  142.1402  164.7559 C.ar    1  UNL1        0.0156
      2 C         141.7224  141.2045  163.8089 C.ar    1  UNL1        0.0011
      3 C         142.1891  141.0963  162.3874 C.ar    1  UNL1       -0.0029
      4 C         143.3467  141.9238  161.9131 C.ar    1  UNL1       -0.0061
      5 C         144.0377  142.8595  162.8601 C.ar    1  UNL1       -0.0029
      6 C         143.5710  142.9677  164.2815 C.ar    1  UNL1        0.0011
      7 O         139.1839  143.1223  170.7439 O.2     1  UNL1       -0.2651
      8 C         140.5467  142.5732  170.4417 C.ar    1  UNL1        0.2806
      9 N         141.4428  142.1324  171.5609 N.ar    1  UNL1       -0.2062
     10 C         142.8056  141.5833  171.2587 C.ar    1  UNL1        0.1037
     11 C         143.2723  141.4751  169.8373 C.ar    1  UNL1        0.0378
     12 C         142.3762  141.9159  168.7181 C.ar    1  UNL1        0.0628
     13 N         142.8428  141.8076  167.2966 N.ar    1  UNL1       -0.3530
     14 C         141.9467  142.2484  166.1774 C.ar    1  UNL1        0.0565
     15 C         140.5839  142.7975  166.4796 C.ar    1  UNL1        0.0158
     16 C         140.1173  142.9058  167.9010 C.ar    1  UNL1        0.0077
     17 C         141.0134  142.4649  169.0203 C.ar    1  UNL1        0.0735
     18 H         143.7373  141.4473  167.0982 H       1  UNL1        0.1659
     19 C         139.6878  143.2383  165.3603 C.ar    1  UNL1        0.0014
     20 C         138.5457  142.3679  164.9268 C.ar    1  UNL1        0.0000
     21 C         137.6496  142.8087  163.8076 C.ar    1  UNL1        0.0000
     22 C         137.8956  144.1198  163.1219 C.ar    1  UNL1        0.0000
     23 C         139.0377  144.9903  163.5554 C.ar    1  UNL1        0.0000
     24 C         139.9338  144.5495  164.6746 C.ar    1  UNL1        0.0000
     25 C         143.8134  141.8156  160.4915 C.3     1  UNL1        0.0991
     26 N         143.4148  140.6330  159.6593 N.3     1  UNL1       -0.2689
     27 C         143.0056  140.8261  158.2292 C.3     1  UNL1        0.0728
     28 C         142.6071  139.6435  157.3969 C.3     1  UNL1        0.0249
     29 C         142.6177  138.2678  157.9948 C.3     1  UNL1        0.0613
     30 C         143.0268  138.0747  159.4250 C.3     1  UNL1        0.0249
     31 C         143.4254  139.2574  160.2572 C.3     1  UNL1        0.0728
     32 C         142.2191  137.0853  157.1626 C.ar    1  UNL1        0.1397
     33 N         141.0537  137.0229  156.2203 N.ar    1  UNL1       -0.1335
     34 N         141.0303  135.6565  155.6018 N.ar    1  UNL1       -0.1261
     35 C         142.1812  134.8744  156.1620 C.ar    1  UNL1        0.1990
     36 N         142.9159  135.7574  157.1266 N.ar    1  UNL1       -0.3221
     37 H         143.7151  135.5090  157.6450 H       1  UNL1        0.1687
     38 C         142.5352  133.4579  155.8179 C.ar    1  UNL1        0.1988
     39 N         142.8634  133.0898  154.4014 N.ar    1  UNL1       -0.2224
     40 C         143.2174  131.6734  154.0573 C.ar    1  UNL1        0.1023
     41 C         143.2432  130.6251  155.1297 C.ar    1  UNL1        0.0414
     42 C         142.9150  130.9932  156.5464 C.ar    1  UNL1        0.1023
     43 N         142.5610  132.4096  156.8904 N.ar    1  UNL1       -0.2224
@<TRIPOS>BOND
     1     7     8    2
     2     8     9   ar
     3     9    10   ar
     4    10    11   ar
     5    11    12   ar
     6    12    13   ar
     7    13    14   ar
     8    14     1    1
     9     1     2   ar
    10     2     3   ar
    11     3     4   ar
    12     4    25    1
    13    25    26    1
    14    26    27    1
    15    27    28    1
    16    28    29    1
    17    29    32    1
    18    32    33   ar
    19    33    34   ar
    20    34    35   ar
    21    35    38    1
    22    38    39   ar
    23    39    40   ar
    24    40    41   ar
    25    41    42   ar
    26    42    43   ar
    27    35    36   ar
    28    29    30    1
    29    30    31    1
    30     4     5   ar
    31     5     6   ar
    32    14    15   ar
    33    15    19    1
    34    19    20   ar
    35    20    21   ar
    36    21    22   ar
    37    22    23   ar
    38    23    24   ar
    39    15    16   ar
    40    16    17   ar
    41    17     8   ar
    42    17    12    1
    43     6     1   ar
    44    24    19   ar
    45    31    26    1
    46    36    32   ar
    47    43    38   ar
    48    13    18    1
    49    36    37    1
@<TRIPOS>MOLECULE
*****
 43 49 0 0 0
SMALL
GASTEIGER

@<TRIPOS>ATOM
      1 C         141.9100  141.3902  164.6953 C.ar    1  UNL1        0.0156
      2 C         143.0049  140.5376  164.1257 C.ar    1  UNL1        0.0011
      3 C         143.4531  140.7404  162.7087 C.ar    1  UNL1       -0.0029
      4 C         142.8066  141.7958  161.8613 C.ar    1  UNL1       -0.0061
      5 C         141.7117  142.6484  162.4309 C.ar    1  UNL1       -0.0029
      6 C         141.2635  142.4456  163.8479 C.ar    1  UNL1        0.0011
      7 O         139.0255  139.5969  170.6714 O.2     1  UNL1       -0.2651
      8 C         140.1167  140.5789  170.3633 C.ar    1  UNL1        0.2806
      9 N         140.7596  141.3581  171.4721 N.ar    1  UNL1       -0.2062
     10 C         141.8508  142.3401  171.1640 C.ar    1  UNL1        0.1037
     11 C         142.2992  142.5429  169.7471 C.ar    1  UNL1        0.0378
     12 C         141.6563  141.7637  168.6382 C.ar    1  UNL1        0.0628
     13 N         142.1046  141.9665  167.2212 N.ar    1  UNL1       -0.3530
     14 C         141.4617  141.1874  166.1123 C.ar    1  UNL1        0.0565
     15 C         140.3705  140.2054  166.4205 C.ar    1  UNL1        0.0158
     16 C         139.9222  140.0026  167.8374 C.ar    1  UNL1        0.0077
     17 C         140.5651  140.7817  168.9464 C.ar    1  UNL1        0.0735
     18 H         142.8208  142.6111  167.0189 H       1  UNL1        0.1659
     19 C         139.7276  139.4262  165.3115 C.ar    1  UNL1        0.0014
     20 C         140.1788  138.0258  165.0195 C.ar    1  UNL1        0.0000
     21 C         139.5360  137.2466  163.9106 C.ar    1  UNL1        0.0000
     22 C         138.4420  137.8678  163.0938 C.ar    1  UNL1        0.0000
     23 C         137.9908  139.2682  163.3859 C.ar    1  UNL1        0.0000
     24 C         138.6336  140.0474  164.4948 C.ar    1  UNL1        0.0000
     25 C         143.2549  141.9986  160.4443 C.3     1  UNL1        0.0991
     26 N         142.4626  142.8813  159.5260 N.3     1  UNL1       -0.2689
     27 C         141.6042  142.2731  158.4569 C.3     1  UNL1        0.0728
     28 C         140.8119  143.1557  157.5387 C.3     1  UNL1        0.0249
     29 C         140.8781  144.6467  157.6895 C.3     1  UNL1        0.0613
     30 C         141.7366  145.2549  158.7587 C.3     1  UNL1        0.0249
     31 C         142.5289  144.3722  159.6769 C.3     1  UNL1        0.0728
     32 C         140.0859  145.5294  156.7713 C.ar    1  UNL1        0.1397
     33 N         138.8949  145.1141  155.9595 N.ar    1  UNL1       -0.1335
     34 N         138.4184  146.3104  155.1901 N.ar    1  UNL1       -0.1261
     35 C         139.3151  147.4650  155.5263 C.ar    1  UNL1        0.1990
     36 N         140.3456  146.9823  156.5036 N.ar    1  UNL1       -0.3221
     37 H         141.0660  147.5240  156.8997 H       1  UNL1        0.1687
     38 C         139.2011  148.8577  154.9811 C.ar    1  UNL1        0.1988
     39 N         138.5905  149.9429  155.8173 N.ar    1  UNL1       -0.2224
     40 C         138.4765  151.3356  155.2721 C.ar    1  UNL1        0.1023
     41 C         138.9732  151.6431  153.8906 C.ar    1  UNL1        0.0414
     42 C         139.5839  150.5580  153.0543 C.ar    1  UNL1        0.1023
     43 N         139.6978  149.1652  153.5995 N.ar    1  UNL1       -0.2224
@<TRIPOS>BOND
     1     7     8    2
     2     8     9   ar
     3     9    10   ar
     4    10    11   ar
     5    11    12   ar
     6    12    13   ar
     7    13    14   ar
     8    14     1    1
     9     1     2   ar
    10     2     3   ar
    11     3     4   ar
    12     4    25    1
    13    25    26    1
    14    26    27    1
    15    27    28    1
    16    28    29    1
    17    29    32    1
    18    32    33   ar
    19    33    34   ar
    20    34    35   ar
    21    35    38    1
    22    38    39   ar
    23    39    40   ar
    24    40    41   ar
    25    41    42   ar
    26    42    43   ar
    27    35    36   ar
    28    29    30    1
    29    30    31    1
    30     4     5   ar
    31     5     6   ar
    32    14    15   ar
    33    15    19    1
    34    19    20   ar
    35    20    21   ar
    36    21    22   ar
    37    22    23   ar
    38    23    24   ar
    39    15    16   ar
    40    16    17   ar
    41    17     8   ar
    42    17    12    1
    43     6     1   ar
    44    24    19   ar
    45    31    26    1
    46    36    32   ar
    47    43    38   ar
    48    13    18    1
    49    36    37    1
@<TRIPOS>MOLECULE
*****
 43 49 0 0 0
SMALL
GASTEIGER

@<TRIPOS>ATOM
      1 C         142.4052  140.3480  164.9639 C.ar    1  UNL1        0.0156
      2 C         143.1630  139.1307  164.5237 C.ar    1  UNL1        0.0011
      3 C         143.8588  139.1203  163.1949 C.ar    1  UNL1       -0.0029
      4 C         143.7968  140.3271  162.3063 C.ar    1  UNL1       -0.0061
      5 C         143.0390  141.5445  162.7465 C.ar    1  UNL1       -0.0029
      6 C         142.3432  141.5549  164.0753 C.ar    1  UNL1        0.0011
      7 O         138.1856  139.9684  170.3770 O.2     1  UNL1       -0.2651
      8 C         139.6219  140.3898  170.2791 C.ar    1  UNL1        0.2806
      9 N         140.3623  140.8218  171.5100 N.ar    1  UNL1       -0.2062
     10 C         141.7985  141.2432  171.4122 C.ar    1  UNL1        0.1037
     11 C         142.4944  141.2328  170.0834 C.ar    1  UNL1        0.0378
     12 C         141.7539  140.8009  168.8525 C.ar    1  UNL1        0.0628
     13 N         142.4498  140.7904  167.5236 N.ar    1  UNL1       -0.3530
     14 C         141.7094  140.3585  166.2927 C.ar    1  UNL1        0.0565
     15 C         140.2731  139.9370  166.3906 C.ar    1  UNL1        0.0158
     16 C         139.5773  139.9474  167.7193 C.ar    1  UNL1        0.0077
     17 C         140.3177  140.3794  168.9503 C.ar    1  UNL1        0.0735
     18 H         143.3924  141.0670  167.4594 H       1  UNL1        0.1659
     19 C         139.5327  139.5050  165.1596 C.ar    1  UNL1        0.0014
     20 C         138.7423  140.5059  164.3699 C.ar    1  UNL1        0.0000
     21 C         138.0019  140.0740  163.1390 C.ar    1  UNL1        0.0000
     22 C         138.0520  138.6413  162.6977 C.ar    1  UNL1        0.0000
     23 C         138.8425  137.6405  163.4873 C.ar    1  UNL1        0.0000
     24 C         139.5828  138.0724  164.7182 C.ar    1  UNL1        0.0000
     25 C         144.4926  140.3167  160.9774 C.3     1  UNL1        0.0991
     26 N         143.8964  141.0503  159.8129 N.3     1  UNL1       -0.2689
     27 C         142.7377  140.4580  159.0668 C.3     1  UNL1        0.0728
     28 C         142.1416  141.1916  157.9023 C.3     1  UNL1        0.0249
     29 C         142.7041  142.5177  157.4836 C.3     1  UNL1        0.0613
     30 C         143.8628  143.1101  158.2297 C.3     1  UNL1        0.0249
     31 C         144.4590  142.3763  159.3943 C.3     1  UNL1        0.0728
     32 C         142.1079  143.2514  156.3191 C.ar    1  UNL1        0.1397
     33 N         141.6984  142.6436  155.0103 N.ar    1  UNL1       -0.1335
     34 N         141.1540  143.7382  154.1411 N.ar    1  UNL1       -0.1261
     35 C         141.2269  145.0225  154.9128 C.ar    1  UNL1        0.1990
     36 N         141.8165  144.7216  156.2588 N.ar    1  UNL1       -0.3221
     37 H         141.9830  145.3744  156.9767 H       1  UNL1        0.1687
     38 C         140.7875  146.3709  154.4241 C.ar    1  UNL1        0.1988
     39 N         141.2633  146.8788  153.0955 N.ar    1  UNL1       -0.2224
     40 C         140.8239  148.2272  152.6068 C.ar    1  UNL1        0.1023
     41 C         139.9086  149.0676  153.4469 C.ar    1  UNL1        0.0414
     42 C         139.4327  148.5597  154.7757 C.ar    1  UNL1        0.1023
     43 N         139.8722  147.2114  155.2643 N.ar    1  UNL1       -0.2224
@<TRIPOS>BOND
     1     7     8    2
     2     8     9   ar
     3     9    10   ar
     4    10    11   ar
     5    11    12   ar
     6    12    13   ar
     7    13    14   ar
     8    14     1    1
     9     1     2   ar
    10     2     3   ar
    11     3     4   ar
    12     4    25    1
    13    25    26    1
    14    26    27    1
    15    27    28    1
    16    28    29    1
    17    29    32    1
    18    32    33   ar
    19    33    34   ar
    20    34    35   ar
    21    35    38    1
    22    38    39   ar
    23    39    40   ar
    24    40    41   ar
    25    41    42   ar
    26    42    43   ar
    27    35    36   ar
    28    29    30    1
    29    30    31    1
    30     4     5   ar
    31     5     6   ar
    32    14    15   ar
    33    15    19    1
    34    19    20   ar
    35    20    21   ar
    36    21    22   ar
    37    22    23   ar
    38    23    24   ar
    39    15    16   ar
    40    16    17   ar
    41    17     8   ar
    42    17    12    1
    43     6     1   ar
    44    24    19   ar
    45    31    26    1
    46    36    32   ar
    47    43    38   ar
    48    13    18    1
    49    36    37    1
@<TRIPOS>MOLECULE
*****
 43 49 0 0 0
SMALL
GASTEIGER

@<TRIPOS>ATOM
      1 C         141.1236  142.8126  164.8916 C.ar    1  UNL1        0.0156
      2 C         140.0783  142.1758  164.0246 C.ar    1  UNL1        0.0011
      3 C         139.8170  142.7119  162.6483 C.ar    1  UNL1       -0.0029
      4 C         140.6011  143.8849  162.1390 C.ar    1  UNL1       -0.0061
      5 C         141.6464  144.5217  163.0059 C.ar    1  UNL1       -0.0029
      6 C         141.9077  143.9856  164.3822 C.ar    1  UNL1        0.0011
      7 O         143.1448  139.5458  170.5919 O.2     1  UNL1       -0.2651
      8 C         142.1689  140.6682  170.3970 C.ar    1  UNL1        0.2806
      9 N         141.4543  141.2544  171.5783 N.ar    1  UNL1       -0.2062
     10 C         140.4784  142.3767  171.3834 C.ar    1  UNL1        0.1037
     11 C         140.2171  142.9128  170.0071 C.ar    1  UNL1        0.0378
     12 C         140.9317  142.3266  168.8257 C.ar    1  UNL1        0.0628
     13 N         140.6704  142.8627  167.4493 N.ar    1  UNL1       -0.3530
     14 C         141.3849  142.2765  166.2680 C.ar    1  UNL1        0.0565
     15 C         142.3608  141.1542  166.4629 C.ar    1  UNL1        0.0158
     16 C         142.6221  140.6181  167.8392 C.ar    1  UNL1        0.0077
     17 C         141.9076  141.2043  169.0207 C.ar    1  UNL1        0.0735
     18 H         140.0299  143.5994  167.3214 H       1  UNL1        0.1659
     19 C         143.0754  140.5679  165.2814 C.ar    1  UNL1        0.0014
     20 C         142.5436  139.3302  164.6217 C.ar    1  UNL1        0.0000
     21 C         143.2581  138.7440  163.4403 C.ar    1  UNL1        0.0000
     22 C         144.5044  139.3955  162.9186 C.ar    1  UNL1        0.0000
     23 C         145.0362  140.6332  163.5783 C.ar    1  UNL1        0.0000
     24 C         144.3217  141.2194  164.7597 C.ar    1  UNL1        0.0000
     25 C         140.3398  144.4210  160.7626 C.3     1  UNL1        0.0991
     26 N         141.2420  144.0413  159.6260 N.3     1  UNL1       -0.2689
     27 C         141.9369  142.7120  159.6318 C.3     1  UNL1        0.0728
     28 C         142.8391  142.3324  158.4953 C.3     1  UNL1        0.0249
     29 C         143.0466  143.2821  157.3529 C.3     1  UNL1        0.0613
     30 C         142.3517  144.6114  157.3471 C.3     1  UNL1        0.0249
     31 C         141.4494  144.9910  158.4837 C.3     1  UNL1        0.0728
     32 C         143.9488  142.9024  156.2163 C.ar    1  UNL1        0.1397
     33 N         143.5097  142.4611  154.8516 N.ar    1  UNL1       -0.1335
     34 N         144.7381  142.1834  154.0368 N.ar    1  UNL1       -0.1261
     35 C         145.9364  142.4531  154.8979 C.ar    1  UNL1        0.1990
     36 N         145.4485  142.8975  156.2449 N.ar    1  UNL1       -0.3221
     37 H         146.0135  143.1428  157.0129 H       1  UNL1        0.1687
     38 C         147.3706  142.3045  154.4845 C.ar    1  UNL1        0.1988
     39 N         147.7988  142.7063  153.1043 N.ar    1  UNL1       -0.2224
     40 C         149.2331  142.5576  152.6909 C.ar    1  UNL1        0.1023
     41 C         150.2391  142.0072  153.6578 C.ar    1  UNL1        0.0414
     42 C         149.8109  141.6054  155.0381 C.ar    1  UNL1        0.1023
     43 N         148.3767  141.7540  155.4514 N.ar    1  UNL1       -0.2224
@<TRIPOS>BOND
     1     7     8    2
     2     8     9   ar
     3     9    10   ar
     4    10    11   ar
     5    11    12   ar
     6    12    13   ar
     7    13    14   ar
     8    14     1    1
     9     1     2   ar
    10     2     3   ar
    11     3     4   ar
    12     4    25    1
    13    25    26    1
    14    26    27    1
    15    27    28    1
    16    28    29    1
    17    29    32    1
    18    32    33   ar
    19    33    34   ar
    20    34    35   ar
    21    35    38    1
    22    38    39   ar
    23    39    40   ar
    24    40    41   ar
    25    41    42   ar
    26    42    43   ar
    27    35    36   ar
    28    29    30    1
    29    30    31    1
    30     4     5   ar
    31     5     6   ar
    32    14    15   ar
    33    15    19    1
    34    19    20   ar
    35    20    21   ar
    36    21    22   ar
    37    22    23   ar
    38    23    24   ar
    39    15    16   ar
    40    16    17   ar
    41    17     8   ar
    42    17    12    1
    43     6     1   ar
    44    24    19   ar
    45    31    26    1
    46    36    32   ar
    47    43    38   ar
    48    13    18    1
    49    36    37    1
@<TRIPOS>MOLECULE
*****
 43 49 0 0 0
SMALL
GASTEIGER

@<TRIPOS>ATOM
      1 C         140.6427  141.3768  164.6655 C.ar    1  UNL1        0.0156
      2 C         139.8519  142.4058  163.9135 C.ar    1  UNL1        0.0011
      3 C         139.3141  142.0890  162.5495 C.ar    1  UNL1       -0.0029
      4 C         139.5672  140.7430  161.9377 C.ar    1  UNL1       -0.0061
      5 C         140.3580  139.7139  162.6897 C.ar    1  UNL1       -0.0029
      6 C         140.8958  140.0308  164.0536 C.ar    1  UNL1        0.0011
      7 O         144.2405  143.0029  170.2924 O.2     1  UNL1       -0.2651
      8 C         142.7942  142.6442  170.1213 C.ar    1  UNL1        0.2806
      9 N         141.8856  142.6024  171.3140 N.ar    1  UNL1       -0.2062
     10 C         140.4392  142.2437  171.1429 C.ar    1  UNL1        0.1037
     11 C         139.9014  141.9268  169.7790 C.ar    1  UNL1        0.0378
     12 C         140.8099  141.9687  168.5862 C.ar    1  UNL1        0.0628
     13 N         140.2721  141.6518  167.2223 N.ar    1  UNL1       -0.3530
     14 C         141.1806  141.6936  166.0295 C.ar    1  UNL1        0.0565
     15 C         142.6270  142.0523  166.2006 C.ar    1  UNL1        0.0158
     16 C         143.1648  142.3692  167.5645 C.ar    1  UNL1        0.0077
     17 C         142.2563  142.3274  168.7574 C.ar    1  UNL1        0.0735
     18 H         139.3227  141.4164  167.1099 H       1  UNL1        0.1659
     19 C         143.5355  142.0942  165.0077 C.ar    1  UNL1        0.0014
     20 C         144.4069  140.9161  164.6869 C.ar    1  UNL1        0.0000
     21 C         145.3154  140.9579  163.4941 C.ar    1  UNL1        0.0000
     22 C         145.3525  142.1778  162.6221 C.ar    1  UNL1        0.0000
     23 C         144.4812  143.3559  162.9429 C.ar    1  UNL1        0.0000
     24 C         143.5727  143.3141  164.1357 C.ar    1  UNL1        0.0000
     25 C         139.0293  140.4261  160.5737 C.3     1  UNL1        0.0991
     26 N         139.1725  141.4219  159.4611 N.3     1  UNL1       -0.2689
     27 C         140.4958  142.0827  159.2117 C.3     1  UNL1        0.0728
     28 C         140.6390  143.0785  158.0991 C.3     1  UNL1        0.0249
     29 C         139.4588  143.4135  157.2358 C.3     1  UNL1        0.0613
     30 C         138.1355  142.7527  157.4852 C.3     1  UNL1        0.0249
     31 C         137.9924  141.7568  158.5979 C.3     1  UNL1        0.0728
     32 C         139.6020  144.4093  156.1232 C.ar    1  UNL1        0.1397
     33 N         139.9344  144.0937  154.6950 N.ar    1  UNL1       -0.1335
     34 N         139.9758  145.3848  153.9326 N.ar    1  UNL1       -0.1261
     35 C         139.6690  146.4984  154.8896 C.ar    1  UNL1        0.1990
     36 N         139.4380  145.8954  156.2435 N.ar    1  UNL1       -0.3221
     37 H         139.2174  146.3885  157.0666 H       1  UNL1        0.1687
     38 C         139.6045  147.9585  154.5521 C.ar    1  UNL1        0.1988
     39 N         138.9250  148.9150  155.4865 N.ar    1  UNL1       -0.2224
     40 C         138.8605  150.3751  155.1489 C.ar    1  UNL1        0.1023
     41 C         139.4755  150.8786  153.8769 C.ar    1  UNL1        0.0414
     42 C         140.1550  149.9221  152.9424 C.ar    1  UNL1        0.1023
     43 N         140.2195  148.4620  153.2800 N.ar    1  UNL1       -0.2224
@<TRIPOS>BOND
     1     7     8    2
     2     8     9   ar
     3     9    10   ar
     4    10    11   ar
     5    11    12   ar
     6    12    13   ar
     7    13    14   ar
     8    14     1    1
     9     1     2   ar
    10     2     3   ar
    11     3     4   ar
    12     4    25    1
    13    25    26    1
    14    26    27    1
    15    27    28    1
    16    28    29    1
    17    29    32    1
    18    32    33   ar
    19    33    34   ar
    20    34    35   ar
    21    35    38    1
    22    38    39   ar
    23    39    40   ar
    24    40    41   ar
    25    41    42   ar
    26    42    43   ar
    27    35    36   ar
    28    29    30    1
    29    30    31    1
    30     4     5   ar
    31     5     6   ar
    32    14    15   ar
    33    15    19    1
    34    19    20   ar
    35    20    21   ar
    36    21    22   ar
    37    22    23   ar
    38    23    24   ar
    39    15    16   ar
    40    16    17   ar
    41    17     8   ar
    42    17    12    1
    43     6     1   ar
    44    24    19   ar
    45    31    26    1
    46    36    32   ar
    47    43    38   ar
    48    13    18    1
    49    36    37    1
@<TRIPOS>MOLECULE
*****
 43 49 0 0 0
SMALL
GASTEIGER

@<TRIPOS>ATOM
      1 C         140.2306  142.4008  164.6382 C.ar    1  UNL1        0.0156
      2 C         141.5040  142.7619  163.9325 C.ar    1  UNL1        0.0011
      3 C         141.4670  143.2128  162.5024 C.ar    1  UNL1       -0.0029
      4 C         140.1566  143.3027  161.7780 C.ar    1  UNL1       -0.0061
      5 C         138.8832  142.9416  162.4836 C.ar    1  UNL1       -0.0029
      6 C         138.9202  142.4907  163.9138 C.ar    1  UNL1        0.0011
      7 O         140.3907  139.1326  170.6833 O.2     1  UNL1       -0.2651
      8 C         140.3782  140.5970  170.3588 C.ar    1  UNL1        0.2806
      9 N         140.4027  141.6105  171.4643 N.ar    1  UNL1       -0.2062
     10 C         140.3902  143.0749  171.1398 C.ar    1  UNL1        0.1037
     11 C         140.3533  143.5258  169.7097 C.ar    1  UNL1        0.0378
     12 C         140.3288  142.5124  168.6041 C.ar    1  UNL1        0.0628
     13 N         140.2919  142.9633  167.1739 N.ar    1  UNL1       -0.3530
     14 C         140.2675  141.9499  166.0684 C.ar    1  UNL1        0.0565
     15 C         140.2799  140.4855  166.3929 C.ar    1  UNL1        0.0158
     16 C         140.3168  140.0345  167.8230 C.ar    1  UNL1        0.0077
     17 C         140.3413  141.0480  168.9287 C.ar    1  UNL1        0.0735
     18 H         140.2838  143.9245  166.9609 H       1  UNL1        0.1659
     19 C         140.2555  139.4720  165.2873 C.ar    1  UNL1        0.0014
     20 C         141.5401  139.0049  164.6695 C.ar    1  UNL1        0.0000
     21 C         141.5157  137.9915  163.5639 C.ar    1  UNL1        0.0000
     22 C         140.2067  137.4452  163.0761 C.ar    1  UNL1        0.0000
     23 C         138.9221  137.9122  163.6939 C.ar    1  UNL1        0.0000
     24 C         138.9465  138.9257  164.7995 C.ar    1  UNL1        0.0000
     25 C         140.1197  143.7536  160.3478 C.3     1  UNL1        0.0991
     26 N         141.1864  143.3065  159.3927 N.3     1  UNL1       -0.2689
     27 C         141.9688  144.3217  158.6134 C.3     1  UNL1        0.0728
     28 C         143.0355  143.8746  157.6583 C.3     1  UNL1        0.0249
     29 C         143.3197  142.4123  157.4824 C.3     1  UNL1        0.0613
     30 C         142.5373  141.3971  158.2616 C.3     1  UNL1        0.0249
     31 C         141.4706  141.8443  159.2168 C.3     1  UNL1        0.0728
     32 C         144.3864  141.9652  156.5272 C.ar    1  UNL1        0.1397
     33 N         144.2981  140.7965  155.5911 N.ar    1  UNL1       -0.1335
     34 N         145.5857  140.7173  154.8258 N.ar    1  UNL1       -0.1261
     35 C         146.4699  141.8370  155.2890 C.ar    1  UNL1        0.1990
     36 N         145.7287  142.6082  156.3406 N.ar    1  UNL1       -0.3221
     37 H         146.0642  143.3978  156.8234 H       1  UNL1        0.1687
     38 C         147.8525  142.1334  154.7886 C.ar    1  UNL1        0.1988
     39 N         149.0409  141.4985  155.4477 N.ar    1  UNL1       -0.2224
     40 C         150.4235  141.7949  154.9472 C.ar    1  UNL1        0.1023
     41 C         150.6178  142.7263  153.7876 C.ar    1  UNL1        0.0414
     42 C         149.4294  143.3613  153.1284 C.ar    1  UNL1        0.1023
     43 N         148.0468  143.0649  153.6289 N.ar    1  UNL1       -0.2224
@<TRIPOS>BOND
     1     7     8    2
     2     8     9   ar
     3     9    10   ar
     4    10    11   ar
     5    11    12   ar
     6    12    13   ar
     7    13    14   ar
     8    14     1    1
     9     1     2   ar
    10     2     3   ar
    11     3     4   ar
    12     4    25    1
    13    25    26    1
    14    26    27    1
    15    27    28    1
    16    28    29    1
    17    29    32    1
    18    32    33   ar
    19    33    34   ar
    20    34    35   ar
    21    35    38    1
    22    38    39   ar
    23    39    40   ar
    24    40    41   ar
    25    41    42   ar
    26    42    43   ar
    27    35    36   ar
    28    29    30    1
    29    30    31    1
    30     4     5   ar
    31     5     6   ar
    32    14    15   ar
    33    15    19    1
    34    19    20   ar
    35    20    21   ar
    36    21    22   ar
    37    22    23   ar
    38    23    24   ar
    39    15    16   ar
    40    16    17   ar
    41    17     8   ar
    42    17    12    1
    43     6     1   ar
    44    24    19   ar
    45    31    26    1
    46    36    32   ar
    47    43    38   ar
    48    13    18    1
    49    36    37    1
@<TRIPOS>MOLECULE
*****
 43 49 0 0 0
SMALL
GASTEIGER

@<TRIPOS>ATOM
      1 C         140.9925  140.0899  165.1324 C.ar    1  UNL1        0.0156
      2 C         140.3113  140.9185  164.0840 C.ar    1  UNL1        0.0011
      3 C         139.8991  140.2930  162.7845 C.ar    1  UNL1       -0.0029
      4 C         140.1682  138.8388  162.5334 C.ar    1  UNL1       -0.0061
      5 C         140.8494  138.0102  163.5818 C.ar    1  UNL1       -0.0029
      6 C         141.2616  138.6357  164.8813 C.ar    1  UNL1        0.0011
      7 O         143.9150  143.3801  170.4129 O.2     1  UNL1       -0.2651
      8 C         142.6415  142.5919  170.3306 C.ar    1  UNL1        0.2806
      9 N         141.7801  142.4292  171.5478 N.ar    1  UNL1       -0.2062
     10 C         140.5066  141.6410  171.4655 C.ar    1  UNL1        0.1037
     11 C         140.0943  141.0155  170.1660 C.ar    1  UNL1        0.0378
     12 C         140.9557  141.1782  168.9488 C.ar    1  UNL1        0.0628
     13 N         140.5434  140.5527  167.6492 N.ar    1  UNL1       -0.3530
     14 C         141.4048  140.7154  166.4320 C.ar    1  UNL1        0.0565
     15 C         142.6783  141.5036  166.5143 C.ar    1  UNL1        0.0158
     16 C         143.0906  142.1291  167.8138 C.ar    1  UNL1        0.0077
     17 C         142.2292  141.9664  169.0311 C.ar    1  UNL1        0.0735
     18 H         139.7075  140.0354  167.5951 H       1  UNL1        0.1659
     19 C         143.5397  141.6663  165.2970 C.ar    1  UNL1        0.0014
     20 C         143.5557  142.9719  164.5586 C.ar    1  UNL1        0.0000
     21 C         144.4169  143.1346  163.3414 C.ar    1  UNL1        0.0000
     22 C         145.2622  141.9917  162.8626 C.ar    1  UNL1        0.0000
     23 C         145.2462  140.6861  163.6010 C.ar    1  UNL1        0.0000
     24 C         144.3849  140.5234  164.8182 C.ar    1  UNL1        0.0000
     25 C         139.7559  138.2133  161.2338 C.3     1  UNL1        0.0991
     26 N         140.5685  138.4516  159.9957 N.3     1  UNL1       -0.2689
     27 C         142.0667  138.4339  160.0669 C.3     1  UNL1        0.0728
     28 C         142.8793  138.6722  158.8288 C.3     1  UNL1        0.0249
     29 C         142.1936  138.9281  157.5194 C.3     1  UNL1        0.0613
     30 C         140.6954  138.9458  157.4482 C.3     1  UNL1        0.0249
     31 C         139.8829  138.7075  158.6864 C.3     1  UNL1        0.0728
     32 C         143.0062  139.1664  156.2813 C.ar    1  UNL1        0.1397
     33 N         142.7118  138.6215  154.9151 N.ar    1  UNL1       -0.1335
     34 N         143.7795  139.1097  153.9815 N.ar    1  UNL1       -0.1261
     35 C         144.7337  139.9564  154.7706 C.ar    1  UNL1        0.1990
     36 N         144.2558  139.9914  156.1920 N.ar    1  UNL1       -0.3221
     37 H         144.6866  140.4715  156.9357 H       1  UNL1        0.1687
     38 C         145.9520  140.6468  154.2328 C.ar    1  UNL1        0.1988
     39 N         146.2120  140.6668  152.7557 N.ar    1  UNL1       -0.2224
     40 C         147.4302  141.3571  152.2179 C.ar    1  UNL1        0.1023
     41 C         148.3884  142.0275  153.1571 C.ar    1  UNL1        0.0414
     42 C         148.1284  142.0075  154.6343 C.ar    1  UNL1        0.1023
     43 N         146.9102  141.3172  155.1721 N.ar    1  UNL1       -0.2224
@<TRIPOS>BOND
     1     7     8    2
     2     8     9   ar
     3     9    10   ar
     4    10    11   ar
     5    11    12   ar
     6    12    13   ar
     7    13    14   ar
     8    14     1    1
     9     1     2   ar
    10     2     3   ar
    11     3     4   ar
    12     4    25    1
    13    25    26    1
    14    26    27    1
    15    27    28    1
    16    28    29    1
    17    29    32    1
    18    32    33   ar
    19    33    34   ar
    20    34    35   ar
    21    35    38    1
    22    38    39   ar
    23    39    40   ar
    24    40    41   ar
    25    41    42   ar
    26    42    43   ar
    27    35    36   ar
    28    29    30    1
    29    30    31    1
    30     4     5   ar
    31     5     6   ar
    32    14    15   ar
    33    15    19    1
    34    19    20   ar
    35    20    21   ar
    36    21    22   ar
    37    22    23   ar
    38    23    24   ar
    39    15    16   ar
    40    16    17   ar
    41    17     8   ar
    42    17    12    1
    43     6     1   ar
    44    24    19   ar
    45    31    26    1
    46    36    32   ar
    47    43    38   ar
    48    13    18    1
    49    36    37    1
