@<TRIPOS>MOLECULE
*****
 36 39 0 0 0
SMALL
GASTEIGER

@<TRIPOS>ATOM
      1 O         141.2648  143.3768  160.0128 O.2     1  UNL1       -0.2707
      2 C         140.0435  144.0689  160.5414 C.2     1  UNL1        0.2707
      3 N         138.8110  143.2757  160.8602 N.am    1  UNL1       -0.2796
      4 H         138.0094  143.7299  161.2072 H       1  UNL1        0.1550
      5 C         138.7997  141.7906  160.6503 C.ar    1  UNL1        0.0700
      6 C         138.3172  141.2205  159.3494 C.ar    1  UNL1        0.1135
      7 N         138.3059  139.7354  159.1395 N.ar    1  UNL1       -0.2409
      8 C         138.7772  138.8201  160.2305 C.ar    1  UNL1        0.1034
      9 C         139.2597  139.3901  161.5314 C.ar    1  UNL1        0.0737
     10 C         139.2710  140.8753  161.7413 C.ar    1  UNL1        0.0223
     11 C         139.7310  138.4749  162.6224 C.2     1  UNL1        0.2474
     12 O         138.8484  137.3595  163.0991 O.2     1  UNL1       -0.2701
     13 N         141.0847  138.6749  163.2367 N.am    1  UNL1       -0.3008
     14 H         141.6639  139.4070  162.9238 H       1  UNL1        0.1497
     15 C         141.5560  137.7597  164.3277 C.3     1  UNL1        0.0896
     16 C         142.6618  138.1923  165.2441 C.3     1  UNL1        0.0196
     17 C         143.5517  137.9266  166.4220 C.3     1  UNL1        0.0017
     18 C         143.6874  139.2075  165.6535 C.3     1  UNL1        0.0017
     19 C         140.0548  145.5541  160.7513 C.3     1  UNL1        0.2897
     20 O         140.3459  146.1173  162.1107 O.3     1  UNL1       -0.4656
     21 C         140.7391  145.2028  163.2329 C.ar    1  UNL1        0.1393
     22 C         139.7121  144.7550  164.2303 C.ar    1  UNL1        0.0370
     23 C         140.1053  143.8406  165.3524 C.ar    1  UNL1        0.0063
     24 C         141.5254  143.3741  165.4772 C.ar    1  UNL1        0.0392
     25 C         142.5524  143.8219  164.4798 C.ar    1  UNL1        0.0063
     26 C         142.1592  144.7363  163.3577 C.ar    1  UNL1        0.0370
     27 C         141.9186  142.4596  166.5994 C.2     1  UNL1        0.1961
     28 O         143.3422  142.4193  167.0703 O.2     1  UNL1       -0.2866
     29 C         140.8882  141.5856  167.2507 C.ar    1  UNL1        0.0460
     30 C         140.2110  140.5066  166.4586 C.ar    1  UNL1        0.0151
     31 C         139.1805  139.6326  167.1100 C.ar    1  UNL1        0.0578
     32 CL        138.5033  138.5536  166.3179 Cl      1  UNL1       -0.0822
     33 C         138.8273  139.8374  168.5533 C.ar    1  UNL1        0.0119
     34 C         139.5044  140.9163  169.3453 C.ar    1  UNL1        0.0077
     35 C         140.5349  141.7904  168.6941 C.ar    1  UNL1        0.0377
     36 BR        141.2120  142.8693  169.4861 Br      1  UNL1       -0.0489
@<TRIPOS>BOND
     1     1     2    2
     2     2    19    1
     3    19    20    1
     4    20    21    1
     5    21    22   ar
     6    22    23   ar
     7    23    24   ar
     8    24    27    1
     9    27    28    2
    10    27    29    1
    11    29    30   ar
    12    30    31   ar
    13    31    32    1
    14    31    33   ar
    15    33    34   ar
    16    34    35   ar
    17    35    36    1
    18    24    25   ar
    19    25    26   ar
    20     2     3   am
    21     3     5    1
    22     5     6   ar
    23     6     7   ar
    24     7     8   ar
    25     8     9   ar
    26     9    11    1
    27    11    12    2
    28    11    13   am
    29    13    15    1
    30    15    16    1
    31    16    17    1
    32    17    18    1
    33     9    10   ar
    34    26    21   ar
    35    10     5   ar
    36    35    29   ar
    37    18    16    1
    38     3     4    1
    39    13    14    1
@<TRIPOS>MOLECULE
*****
 36 39 0 0 0
SMALL
GASTEIGER

@<TRIPOS>ATOM
      1 O         138.2750  143.3163  161.0133 O.2     1  UNL1       -0.2707
      2 C         139.6086  143.7927  160.5188 C.2     1  UNL1        0.2707
      3 N         140.5850  142.8150  159.9351 N.am    1  UNL1       -0.2796
      4 H         141.4603  143.1276  159.6106 H       1  UNL1        0.1550
      5 C         140.2277  141.3609  159.8460 C.ar    1  UNL1        0.0700
      6 C         139.8507  140.7609  158.5238 C.ar    1  UNL1        0.1135
      7 N         139.4935  139.3068  158.4346 N.ar    1  UNL1       -0.2409
      8 C         139.5132  138.4527  159.6676 C.ar    1  UNL1        0.1034
      9 C         139.8902  139.0526  160.9896 C.ar    1  UNL1        0.0737
     10 C         140.2475  140.5067  161.0789 C.ar    1  UNL1        0.0223
     11 C         139.9099  138.1984  162.2225 C.2     1  UNL1        0.2474
     12 O         140.9545  137.1336  162.3806 O.2     1  UNL1       -0.2701
     13 N         138.8851  138.4091  163.2973 N.am    1  UNL1       -0.3008
     14 H         138.1995  139.1080  163.1936 H       1  UNL1        0.1497
     15 C         138.9048  137.5550  164.5302 C.3     1  UNL1        0.0896
     16 C         138.3933  138.1020  165.8299 C.3     1  UNL1        0.0196
     17 C         137.4859  137.9903  167.0190 C.3     1  UNL1        0.0017
     18 C         138.4147  139.1612  166.8918 C.3     1  UNL1        0.0017
     19 C         139.9658  145.2468  160.6080 C.3     1  UNL1        0.2897
     20 O         140.8150  145.7424  161.7408 O.3     1  UNL1       -0.4656
     21 C         141.5250  144.7645  162.6295 C.ar    1  UNL1        0.1393
     22 C         140.8618  144.2693  163.8804 C.ar    1  UNL1        0.0370
     23 C         141.5718  143.2915  164.7691 C.ar    1  UNL1        0.0063
     24 C         142.9450  142.8088  164.4068 C.ar    1  UNL1        0.0392
     25 C         143.6083  143.3040  163.1558 C.ar    1  UNL1        0.0063
     26 C         142.8983  144.2818  162.2672 C.ar    1  UNL1        0.0370
     27 C         143.6550  141.8310  165.2955 C.2     1  UNL1        0.1961
     28 O         144.9246  141.1807  164.8316 O.2     1  UNL1       -0.2866
     29 C         143.0954  141.5033  166.6480 C.ar    1  UNL1        0.0460
     30 C         143.2879  142.4563  167.7903 C.ar    1  UNL1        0.0151
     31 C         142.7282  142.1287  169.1429 C.ar    1  UNL1        0.0578
     32 CL        142.9207  143.0817  170.2851 Cl      1  UNL1       -0.0822
     33 C         141.9760  140.8481  169.3532 C.ar    1  UNL1        0.0119
     34 C         141.7835  139.8951  168.2109 C.ar    1  UNL1        0.0077
     35 C         142.3431  140.2227  166.8584 C.ar    1  UNL1        0.0377
     36 BR        142.1506  139.2697  165.7161 Br      1  UNL1       -0.0489
@<TRIPOS>BOND
     1     1     2    2
     2     2    19    1
     3    19    20    1
     4    20    21    1
     5    21    22   ar
     6    22    23   ar
     7    23    24   ar
     8    24    27    1
     9    27    28    2
    10    27    29    1
    11    29    30   ar
    12    30    31   ar
    13    31    32    1
    14    31    33   ar
    15    33    34   ar
    16    34    35   ar
    17    35    36    1
    18    24    25   ar
    19    25    26   ar
    20     2     3   am
    21     3     5    1
    22     5     6   ar
    23     6     7   ar
    24     7     8   ar
    25     8     9   ar
    26     9    11    1
    27    11    12    2
    28    11    13   am
    29    13    15    1
    30    15    16    1
    31    16    17    1
    32    17    18    1
    33     9    10   ar
    34    26    21   ar
    35    10     5   ar
    36    35    29   ar
    37    18    16    1
    38     3     4    1
    39    13    14    1
@<TRIPOS>MOLECULE
*****
 36 39 0 0 0
SMALL
GASTEIGER

@<TRIPOS>ATOM
      1 O         139.5810  144.4500  159.3916 O.2     1  UNL1       -0.2707
      2 C         140.3987  145.1384  160.4439 C.2     1  UNL1        0.2707
      3 N         141.8240  144.7307  160.6721 N.am    1  UNL1       -0.2796
      4 H         142.3607  145.1826  161.3628 H       1  UNL1        0.1550
      5 C         142.4316  143.6346  159.8480 C.ar    1  UNL1        0.0700
      6 C         143.0591  143.9521  158.5230 C.ar    1  UNL1        0.1135
      7 N         143.6667  142.8559  157.6990 N.ar    1  UNL1       -0.2409
      8 C         143.6469  141.4422  158.1998 C.ar    1  UNL1        0.1034
      9 C         143.0195  141.1246  159.5247 C.ar    1  UNL1        0.0737
     10 C         142.4118  142.2208  160.3489 C.ar    1  UNL1        0.0223
     11 C         142.9996  139.7108  160.0255 C.2     1  UNL1        0.2474
     12 O         143.4879  138.5971  159.1472 O.2     1  UNL1       -0.2701
     13 N         142.4916  139.4107  161.4045 N.am    1  UNL1       -0.3008
     14 H         142.1712  140.1416  161.9810 H       1  UNL1        0.1497
     15 C         142.4718  137.9969  161.9054 C.3     1  UNL1        0.0896
     16 C         141.4248  137.5641  162.8884 C.3     1  UNL1        0.0196
     17 C         141.0527  136.9147  164.1883 C.3     1  UNL1        0.0017
     18 C         139.9833  137.4637  163.2911 C.3     1  UNL1        0.0017
     19 C         139.7910  146.2347  161.2680 C.3     1  UNL1        0.2897
     20 O         138.7686  145.9068  162.3154 O.3     1  UNL1       -0.4656
     21 C         138.8764  144.6298  163.0950 C.ar    1  UNL1        0.1393
     22 C         139.8491  144.5252  164.2321 C.ar    1  UNL1        0.0370
     23 C         139.9569  143.2482  165.0116 C.ar    1  UNL1        0.0063
     24 C         139.0920  142.0760  164.6542 C.ar    1  UNL1        0.0392
     25 C         138.1193  142.1806  163.5171 C.ar    1  UNL1        0.0063
     26 C         138.0115  143.4576  162.7376 C.ar    1  UNL1        0.0370
     27 C         139.1999  140.7990  165.4338 C.2     1  UNL1        0.1961
     28 O         137.9803  139.9573  165.6669 O.2     1  UNL1       -0.2866
     29 C         140.5272  140.3638  165.9804 C.ar    1  UNL1        0.0460
     30 C         141.7087  140.2333  165.0655 C.ar    1  UNL1        0.0151
     31 C         143.0360  139.7980  165.6121 C.ar    1  UNL1        0.0578
     32 CL        144.2175  139.6675  164.6972 Cl      1  UNL1       -0.0822
     33 C         143.1819  139.4933  167.0735 C.ar    1  UNL1        0.0119
     34 C         142.0004  139.6238  167.9884 C.ar    1  UNL1        0.0077
     35 C         140.6730  140.0590  167.4419 C.ar    1  UNL1        0.0377
     36 BR        139.4915  140.1895  168.3568 Br      1  UNL1       -0.0489
@<TRIPOS>BOND
     1     1     2    2
     2     2    19    1
     3    19    20    1
     4    20    21    1
     5    21    22   ar
     6    22    23   ar
     7    23    24   ar
     8    24    27    1
     9    27    28    2
    10    27    29    1
    11    29    30   ar
    12    30    31   ar
    13    31    32    1
    14    31    33   ar
    15    33    34   ar
    16    34    35   ar
    17    35    36    1
    18    24    25   ar
    19    25    26   ar
    20     2     3   am
    21     3     5    1
    22     5     6   ar
    23     6     7   ar
    24     7     8   ar
    25     8     9   ar
    26     9    11    1
    27    11    12    2
    28    11    13   am
    29    13    15    1
    30    15    16    1
    31    16    17    1
    32    17    18    1
    33     9    10   ar
    34    26    21   ar
    35    10     5   ar
    36    35    29   ar
    37    18    16    1
    38     3     4    1
    39    13    14    1
@<TRIPOS>MOLECULE
*****
 36 39 0 0 0
SMALL
GASTEIGER

@<TRIPOS>ATOM
      1 O         139.5986  143.9841  159.2714 O.2     1  UNL1       -0.2707
      2 C         140.4522  144.9129  160.0830 C.2     1  UNL1        0.2707
      3 N         141.9197  144.6426  160.2351 N.am    1  UNL1       -0.2796
      4 H         142.4799  145.2522  160.7678 H       1  UNL1        0.1550
      5 C         142.5337  143.4434  159.5756 C.ar    1  UNL1        0.0700
      6 C         143.1507  143.5699  158.2142 C.ar    1  UNL1        0.1135
      7 N         143.7646  142.3708  157.5547 N.ar    1  UNL1       -0.2409
      8 C         143.7617  141.0451  158.2565 C.ar    1  UNL1        0.1034
      9 C         143.1448  140.9186  159.6179 C.ar    1  UNL1        0.0737
     10 C         142.5308  142.1178  160.2775 C.ar    1  UNL1        0.0223
     11 C         143.1419  139.5929  160.3197 C.2     1  UNL1        0.2474
     12 O         144.3800  138.7460  160.3281 O.2     1  UNL1       -0.2701
     13 N         141.9009  139.1141  161.0131 N.am    1  UNL1       -0.3008
     14 H         141.0884  139.6700  161.0076 H       1  UNL1        0.1497
     15 C         141.8980  137.7885  161.7149 C.3     1  UNL1        0.0896
     16 C         141.1368  137.6199  162.9964 C.3     1  UNL1        0.0196
     17 C         141.1230  137.3887  164.4783 C.3     1  UNL1        0.0017
     18 C         139.8320  137.5593  163.7339 C.3     1  UNL1        0.0017
     19 C         139.8381  146.1121  160.7426 C.3     1  UNL1        0.2897
     20 O         138.8701  145.9322  161.8742 O.3     1  UNL1       -0.4656
     21 C         139.1241  144.8866  162.9194 C.ar    1  UNL1        0.1393
     22 C         140.4561  144.8204  163.6058 C.ar    1  UNL1        0.0370
     23 C         140.7100  143.7748  164.6510 C.ar    1  UNL1        0.0063
     24 C         139.6318  142.7955  165.0096 C.ar    1  UNL1        0.0392
     25 C         138.2998  142.8618  164.3231 C.ar    1  UNL1        0.0063
     26 C         138.0459  143.9074  163.2780 C.ar    1  UNL1        0.0370
     27 C         139.8858  141.7499  166.0548 C.2     1  UNL1        0.1961
     28 O         139.3411  140.3637  165.8767 O.2     1  UNL1       -0.2866
     29 C         140.6844  142.0906  167.2779 C.ar    1  UNL1        0.0460
     30 C         140.1689  143.1095  168.2505 C.ar    1  UNL1        0.0151
     31 C         140.9676  143.4501  169.4737 C.ar    1  UNL1        0.0578
     32 CL        140.4521  144.4691  170.4463 Cl      1  UNL1       -0.0822
     33 C         142.2818  142.7718  169.7242 C.ar    1  UNL1        0.0119
     34 C         142.7973  141.7529  168.7516 C.ar    1  UNL1        0.0077
     35 C         141.9987  141.4122  167.5285 C.ar    1  UNL1        0.0377
     36 BR        142.5142  140.3933  166.5559 Br      1  UNL1       -0.0489
@<TRIPOS>BOND
     1     1     2    2
     2     2    19    1
     3    19    20    1
     4    20    21    1
     5    21    22   ar
     6    22    23   ar
     7    23    24   ar
     8    24    27    1
     9    27    28    2
    10    27    29    1
    11    29    30   ar
    12    30    31   ar
    13    31    32    1
    14    31    33   ar
    15    33    34   ar
    16    34    35   ar
    17    35    36    1
    18    24    25   ar
    19    25    26   ar
    20     2     3   am
    21     3     5    1
    22     5     6   ar
    23     6     7   ar
    24     7     8   ar
    25     8     9   ar
    26     9    11    1
    27    11    12    2
    28    11    13   am
    29    13    15    1
    30    15    16    1
    31    16    17    1
    32    17    18    1
    33     9    10   ar
    34    26    21   ar
    35    10     5   ar
    36    35    29   ar
    37    18    16    1
    38     3     4    1
    39    13    14    1
@<TRIPOS>MOLECULE
*****
 36 39 0 0 0
SMALL
GASTEIGER

@<TRIPOS>ATOM
      1 O         139.5498  143.9598  159.6760 O.2     1  UNL1       -0.2707
      2 C         140.4458  144.9869  160.3023 C.2     1  UNL1        0.2707
      3 N         141.9355  144.8276  160.2287 N.am    1  UNL1       -0.2796
      4 H         142.5236  145.5017  160.6397 H       1  UNL1        0.1550
      5 C         142.5291  143.6412  159.5287 C.ar    1  UNL1        0.0700
      6 C         143.0000  143.7656  158.1099 C.ar    1  UNL1        0.1135
      7 N         143.5937  142.5793  157.4099 N.ar    1  UNL1       -0.2409
      8 C         143.7165  141.2684  158.1287 C.ar    1  UNL1        0.1034
      9 C         143.2456  141.1439  159.5473 C.ar    1  UNL1        0.0737
     10 C         142.6519  142.3303  160.2474 C.ar    1  UNL1        0.0223
     11 C         143.3684  139.8331  160.2661 C.2     1  UNL1        0.2474
     12 O         143.5684  138.5666  159.4874 O.2     1  UNL1       -0.2701
     13 N         143.2912  139.7886  161.7634 N.am    1  UNL1       -0.3008
     14 H         143.1599  140.6197  162.2744 H       1  UNL1        0.1497
     15 C         143.4140  138.4777  162.4821 C.3     1  UNL1        0.0896
     16 C         142.2409  137.9214  163.2333 C.3     1  UNL1        0.0196
     17 C         140.8634  137.3278  163.2364 C.3     1  UNL1        0.0017
     18 C         141.5865  137.5516  164.5314 C.3     1  UNL1        0.0017
     19 C         139.8521  146.1733  161.0024 C.3     1  UNL1        0.2897
     20 O         139.8845  146.2543  162.4998 O.3     1  UNL1       -0.4656
     21 C         140.2955  145.0585  163.3069 C.ar    1  UNL1        0.1393
     22 C         141.7221  144.9025  163.7432 C.ar    1  UNL1        0.0370
     23 C         142.1330  143.7068  164.5502 C.ar    1  UNL1        0.0063
     24 C         141.1174  142.6671  164.9209 C.ar    1  UNL1        0.0392
     25 C         139.6908  142.8231  164.4846 C.ar    1  UNL1        0.0063
     26 C         139.2798  144.0188  163.6776 C.ar    1  UNL1        0.0370
     27 C         141.5284  141.4713  165.7280 C.2     1  UNL1        0.1961
     28 O         142.8549  140.8174  165.4775 O.2     1  UNL1       -0.2866
     29 C         140.6129  140.9295  166.7855 C.ar    1  UNL1        0.0460
     30 C         139.5426  139.9448  166.4183 C.ar    1  UNL1        0.0151
     31 C         138.6271  139.4031  167.4758 C.ar    1  UNL1        0.0578
     32 CL        137.5568  138.4184  167.1086 Cl      1  UNL1       -0.0822
     33 C         138.7819  139.8460  168.9005 C.ar    1  UNL1        0.0119
     34 C         139.8522  140.8307  169.2677 C.ar    1  UNL1        0.0077
     35 C         140.7677  141.3725  168.2102 C.ar    1  UNL1        0.0377
     36 BR        141.8380  142.3572  168.5774 Br      1  UNL1       -0.0489
@<TRIPOS>BOND
     1     1     2    2
     2     2    19    1
     3    19    20    1
     4    20    21    1
     5    21    22   ar
     6    22    23   ar
     7    23    24   ar
     8    24    27    1
     9    27    28    2
    10    27    29    1
    11    29    30   ar
    12    30    31   ar
    13    31    32    1
    14    31    33   ar
    15    33    34   ar
    16    34    35   ar
    17    35    36    1
    18    24    25   ar
    19    25    26   ar
    20     2     3   am
    21     3     5    1
    22     5     6   ar
    23     6     7   ar
    24     7     8   ar
    25     8     9   ar
    26     9    11    1
    27    11    12    2
    28    11    13   am
    29    13    15    1
    30    15    16    1
    31    16    17    1
    32    17    18    1
    33     9    10   ar
    34    26    21   ar
    35    10     5   ar
    36    35    29   ar
    37    18    16    1
    38     3     4    1
    39    13    14    1
@<TRIPOS>MOLECULE
*****
 36 39 0 0 0
SMALL
GASTEIGER

@<TRIPOS>ATOM
      1 O         139.3915  144.2449  160.1542 O.2     1  UNL1       -0.2707
      2 C         140.3600  145.2441  160.7142 C.2     1  UNL1        0.2707
      3 N         141.4475  145.8029  159.8453 N.am    1  UNL1       -0.2796
      4 H         142.0832  146.4587  160.2128 H       1  UNL1        0.1550
      5 C         141.5665  145.3625  158.4164 C.ar    1  UNL1        0.0700
      6 C         140.6937  145.9820  157.3654 C.ar    1  UNL1        0.1135
      7 N         140.8127  145.5416  155.9365 N.ar    1  UNL1       -0.2409
      8 C         141.8045  144.4817  155.5584 C.ar    1  UNL1        0.1034
      9 C         142.6773  143.8621  156.6093 C.ar    1  UNL1        0.0737
     10 C         142.5583  144.3026  158.0383 C.ar    1  UNL1        0.0223
     11 C         143.6691  142.8022  156.2313 C.2     1  UNL1        0.2474
     12 O         143.3853  141.8869  155.0773 O.2     1  UNL1       -0.2701
     13 N         144.9446  142.6576  157.0072 N.am    1  UNL1       -0.3008
     14 H         145.1308  143.2584  157.7646 H       1  UNL1        0.1497
     15 C         145.9364  141.5977  156.6292 C.3     1  UNL1        0.0896
     16 C         147.1630  141.9630  155.8470 C.3     1  UNL1        0.0196
     17 C         147.7989  142.6412  154.6698 C.3     1  UNL1        0.0017
     18 C         148.6518  141.9176  155.6693 C.3     1  UNL1        0.0017
     19 C         140.2410  145.6845  162.1432 C.3     1  UNL1        0.2897
     20 O         139.0347  145.3012  162.9481 O.3     1  UNL1       -0.4656
     21 C         139.0469  144.0430  163.7648 C.ar    1  UNL1        0.1393
     22 C         140.1434  143.8056  164.7603 C.ar    1  UNL1        0.0370
     23 C         140.1555  142.5475  165.5769 C.ar    1  UNL1        0.0063
     24 C         139.0711  141.5267  165.3980 C.ar    1  UNL1        0.0392
     25 C         137.9746  141.7640  164.4024 C.ar    1  UNL1        0.0063
     26 C         137.9625  143.0222  163.5858 C.ar    1  UNL1        0.0370
     27 C         139.0833  140.2685  166.2146 C.2     1  UNL1        0.1961
     28 O         138.0249  139.2268  166.0031 O.2     1  UNL1       -0.2866
     29 C         140.1538  140.0520  167.2427 C.ar    1  UNL1        0.0460
     30 C         139.8891  140.3815  168.6820 C.ar    1  UNL1        0.0151
     31 C         140.9597  140.1650  169.7101 C.ar    1  UNL1        0.0578
     32 CL        140.6950  140.4944  171.1493 Cl      1  UNL1       -0.0822
     33 C         142.2949  139.6190  169.2990 C.ar    1  UNL1        0.0119
     34 C         142.5596  139.2895  167.8598 C.ar    1  UNL1        0.0077
     35 C         141.4891  139.5060  166.8317 C.ar    1  UNL1        0.0377
     36 BR        141.7538  139.1765  165.3924 Br      1  UNL1       -0.0489
@<TRIPOS>BOND
     1     1     2    2
     2     2    19    1
     3    19    20    1
     4    20    21    1
     5    21    22   ar
     6    22    23   ar
     7    23    24   ar
     8    24    27    1
     9    27    28    2
    10    27    29    1
    11    29    30   ar
    12    30    31   ar
    13    31    32    1
    14    31    33   ar
    15    33    34   ar
    16    34    35   ar
    17    35    36    1
    18    24    25   ar
    19    25    26   ar
    20     2     3   am
    21     3     5    1
    22     5     6   ar
    23     6     7   ar
    24     7     8   ar
    25     8     9   ar
    26     9    11    1
    27    11    12    2
    28    11    13   am
    29    13    15    1
    30    15    16    1
    31    16    17    1
    32    17    18    1
    33     9    10   ar
    34    26    21   ar
    35    10     5   ar
    36    35    29   ar
    37    18    16    1
    38     3     4    1
    39    13    14    1
@<TRIPOS>MOLECULE
*****
 36 39 0 0 0
SMALL
GASTEIGER

@<TRIPOS>ATOM
      1 O         139.7598  140.3021  161.0746 O.2     1  UNL1       -0.2707
      2 C         138.3848  140.0907  161.6356 C.2     1  UNL1        0.2707
      3 N         137.6376  141.2409  162.2429 N.am    1  UNL1       -0.2796
      4 H         136.7352  141.1021  162.6111 H       1  UNL1        0.1550
      5 C         138.2654  142.6023  162.2893 C.ar    1  UNL1        0.0700
      6 C         138.0581  143.4836  163.4853 C.ar    1  UNL1        0.1135
      7 N         138.6859  144.8450  163.5317 N.ar    1  UNL1       -0.2409
      8 C         139.5210  145.3254  162.3820 C.ar    1  UNL1        0.1034
      9 C         139.7284  144.4442  161.1860 C.ar    1  UNL1        0.0737
     10 C         139.1006  143.0826  161.1396 C.ar    1  UNL1        0.0223
     11 C         140.5636  144.9245  160.0363 C.2     1  UNL1        0.2474
     12 O         142.0602  144.8977  160.1338 O.2     1  UNL1       -0.2701
     13 N         139.9022  145.4316  158.7892 N.am    1  UNL1       -0.3008
     14 H         138.9200  145.4492  158.7252 H       1  UNL1        0.1497
     15 C         140.7374  145.9119  157.6395 C.3     1  UNL1        0.0896
     16 C         140.0772  146.4882  156.4221 C.3     1  UNL1        0.0196
     17 C         138.9170  147.1935  155.7846 C.3     1  UNL1        0.0017
     18 C         140.0939  146.7811  154.9511 C.3     1  UNL1        0.0017
     19 C         137.7570  138.7292  161.5893 C.3     1  UNL1        0.2897
     20 O         138.1822  137.6736  162.5664 O.3     1  UNL1       -0.4656
     21 C         139.3175  137.9388  163.5103 C.ar    1  UNL1        0.1393
     22 C         140.6952  137.4432  163.1845 C.ar    1  UNL1        0.0370
     23 C         141.8303  137.7085  164.1284 C.ar    1  UNL1        0.0063
     24 C         141.5878  138.4694  165.3981 C.ar    1  UNL1        0.0392
     25 C         140.2101  138.9650  165.7239 C.ar    1  UNL1        0.0063
     26 C         139.0749  138.6997  164.7801 C.ar    1  UNL1        0.0370
     27 C         142.7231  138.7347  166.3420 C.2     1  UNL1        0.1961
     28 O         143.9077  137.8149  166.3675 O.2     1  UNL1       -0.2866
     29 C         142.6736  139.9196  167.2603 C.ar    1  UNL1        0.0460
     30 C         142.3010  139.7364  168.7017 C.ar    1  UNL1        0.0151
     31 C         142.2516  140.9215  169.6201 C.ar    1  UNL1        0.0578
     32 CL        141.8790  140.7382  171.0615 Cl      1  UNL1       -0.0822
     33 C         142.5748  142.2896  169.0970 C.ar    1  UNL1        0.0119
     34 C         142.9474  142.4728  167.6556 C.ar    1  UNL1        0.0077
     35 C         142.9968  141.2879  166.7373 C.ar    1  UNL1        0.0377
     36 BR        143.3694  141.4711  165.2959 Br      1  UNL1       -0.0489
@<TRIPOS>BOND
     1     1     2    2
     2     2    19    1
     3    19    20    1
     4    20    21    1
     5    21    22   ar
     6    22    23   ar
     7    23    24   ar
     8    24    27    1
     9    27    28    2
    10    27    29    1
    11    29    30   ar
    12    30    31   ar
    13    31    32    1
    14    31    33   ar
    15    33    34   ar
    16    34    35   ar
    17    35    36    1
    18    24    25   ar
    19    25    26   ar
    20     2     3   am
    21     3     5    1
    22     5     6   ar
    23     6     7   ar
    24     7     8   ar
    25     8     9   ar
    26     9    11    1
    27    11    12    2
    28    11    13   am
    29    13    15    1
    30    15    16    1
    31    16    17    1
    32    17    18    1
    33     9    10   ar
    34    26    21   ar
    35    10     5   ar
    36    35    29   ar
    37    18    16    1
    38     3     4    1
    39    13    14    1
@<TRIPOS>MOLECULE
*****
 36 39 0 0 0
SMALL
GASTEIGER

@<TRIPOS>ATOM
      1 O         139.2309  144.2941  160.3769 O.2     1  UNL1       -0.2707
      2 C         140.2855  145.2003  160.9396 C.2     1  UNL1        0.2707
      3 N         141.4884  145.5533  160.1160 N.am    1  UNL1       -0.2796
      4 H         142.1806  146.1481  160.4853 H       1  UNL1        0.1550
      5 C         141.6367  145.0001  158.7297 C.ar    1  UNL1        0.0700
      6 C         142.1564  143.6072  158.5297 C.ar    1  UNL1        0.1135
      7 N         142.3048  143.0540  157.1434 N.ar    1  UNL1       -0.2409
      8 C         141.9334  143.8935  155.9571 C.ar    1  UNL1        0.1034
      9 C         141.4137  145.2863  156.1571 C.ar    1  UNL1        0.0737
     10 C         141.2654  145.8396  157.5434 C.ar    1  UNL1        0.0223
     11 C         141.0424  146.1258  154.9708 C.2     1  UNL1        0.2474
     12 O         141.3363  145.6360  153.5838 O.2     1  UNL1       -0.2701
     13 N         140.3771  147.4552  155.1715 N.am    1  UNL1       -0.3008
     14 H         140.1842  147.7766  156.0818 H       1  UNL1        0.1497
     15 C         140.0058  148.2947  153.9852 C.3     1  UNL1        0.0896
     16 C         139.7287  149.7585  154.1595 C.3     1  UNL1        0.0196
     17 C         139.6641  150.9728  155.0377 C.3     1  UNL1        0.0017
     18 C         139.3133  151.0796  153.5833 C.3     1  UNL1        0.0017
     19 C         140.1371  145.7536  162.3260 C.3     1  UNL1        0.2897
     20 O         138.9840  145.3260  163.1847 O.3     1  UNL1       -0.4656
     21 C         139.0522  144.0332  163.9426 C.ar    1  UNL1        0.1393
     22 C         140.1573  143.7999  164.9297 C.ar    1  UNL1        0.0370
     23 C         140.2254  142.5073  165.6875 C.ar    1  UNL1        0.0063
     24 C         139.1885  141.4479  165.4583 C.ar    1  UNL1        0.0392
     25 C         138.0834  141.6812  164.4713 C.ar    1  UNL1        0.0063
     26 C         138.0153  142.9739  163.7134 C.ar    1  UNL1        0.0370
     27 C         139.2566  140.1552  166.2162 C.2     1  UNL1        0.1961
     28 O         138.2990  139.0463  165.8952 O.2     1  UNL1       -0.2866
     29 C         140.2824  139.9716  167.2951 C.ar    1  UNL1        0.0460
     30 C         139.9506  140.3274  168.7139 C.ar    1  UNL1        0.0151
     31 C         140.9765  140.1437  169.7928 C.ar    1  UNL1        0.0578
     32 CL        140.6447  140.4996  171.2117 Cl      1  UNL1       -0.0822
     33 C         142.3342  139.6042  169.4527 C.ar    1  UNL1        0.0119
     34 C         142.6660  139.2483  168.0339 C.ar    1  UNL1        0.0077
     35 C         141.6402  139.4320  166.9550 C.ar    1  UNL1        0.0377
     36 BR        141.9720  139.0761  165.5361 Br      1  UNL1       -0.0489
@<TRIPOS>BOND
     1     1     2    2
     2     2    19    1
     3    19    20    1
     4    20    21    1
     5    21    22   ar
     6    22    23   ar
     7    23    24   ar
     8    24    27    1
     9    27    28    2
    10    27    29    1
    11    29    30   ar
    12    30    31   ar
    13    31    32    1
    14    31    33   ar
    15    33    34   ar
    16    34    35   ar
    17    35    36    1
    18    24    25   ar
    19    25    26   ar
    20     2     3   am
    21     3     5    1
    22     5     6   ar
    23     6     7   ar
    24     7     8   ar
    25     8     9   ar
    26     9    11    1
    27    11    12    2
    28    11    13   am
    29    13    15    1
    30    15    16    1
    31    16    17    1
    32    17    18    1
    33     9    10   ar
    34    26    21   ar
    35    10     5   ar
    36    35    29   ar
    37    18    16    1
    38     3     4    1
    39    13    14    1
@<TRIPOS>MOLECULE
*****
 36 39 0 0 0
SMALL
GASTEIGER

@<TRIPOS>ATOM
      1 O         143.5827  141.6502  157.5268 O.2     1  UNL1       -0.2707
      2 C         142.5108  140.6058  157.6279 C.2     1  UNL1        0.2707
      3 N         141.1589  140.9684  158.1674 N.am    1  UNL1       -0.2796
      4 H         140.4554  140.2829  158.2338 H       1  UNL1        0.1550
      5 C         140.8791  142.3753  158.6058 C.ar    1  UNL1        0.0700
      6 C         140.1071  143.2999  157.7118 C.ar    1  UNL1        0.1135
      7 N         139.8272  144.7068  158.1502 N.ar    1  UNL1       -0.2409
      8 C         140.3192  145.1892  159.4826 C.ar    1  UNL1        0.1034
      9 C         141.0912  144.2646  160.3766 C.ar    1  UNL1        0.0737
     10 C         141.3711  142.8576  159.9382 C.ar    1  UNL1        0.0223
     11 C         141.5832  144.7469  161.7090 C.2     1  UNL1        0.2474
     12 O         140.6146  145.3063  162.7085 O.2     1  UNL1       -0.2701
     13 N         143.0437  144.6699  162.0419 N.am    1  UNL1       -0.3008
     14 H         143.6794  144.3027  161.3859 H       1  UNL1        0.1497
     15 C         143.5358  145.1522  163.3743 C.3     1  UNL1        0.0896
     16 C         144.1303  144.1811  164.3506 C.3     1  UNL1        0.0196
     17 C         144.7195  143.8912  165.6992 C.3     1  UNL1        0.0017
     18 C         144.5709  142.7887  164.6931 C.3     1  UNL1        0.0017
     19 C         142.7907  139.1989  157.1895 C.3     1  UNL1        0.2897
     20 O         143.1741  138.1602  158.2014 O.3     1  UNL1       -0.4656
     21 C         142.9536  138.4191  159.6624 C.ar    1  UNL1        0.1393
     22 C         144.0575  138.9985  160.4964 C.ar    1  UNL1        0.0370
     23 C         143.8370  139.2573  161.9573 C.ar    1  UNL1        0.0063
     24 C         142.5125  138.9368  162.5843 C.ar    1  UNL1        0.0392
     25 C         141.4086  138.3575  161.7503 C.ar    1  UNL1        0.0063
     26 C         141.6291  138.0986  160.2894 C.ar    1  UNL1        0.0370
     27 C         142.2920  139.1957  164.0453 C.2     1  UNL1        0.1961
     28 O         143.4658  139.3095  164.9723 O.2     1  UNL1       -0.2866
     29 C         140.8978  139.3408  164.5792 C.ar    1  UNL1        0.0460
     30 C         140.1612  138.1379  165.0895 C.ar    1  UNL1        0.0151
     31 C         138.7669  138.2830  165.6234 C.ar    1  UNL1        0.0578
     32 CL        138.0302  137.0802  166.1337 Cl      1  UNL1       -0.0822
     33 C         138.1093  139.6310  165.6470 C.ar    1  UNL1        0.0119
     34 C         138.8460  140.8339  165.1367 C.ar    1  UNL1        0.0077
     35 C         140.2402  140.6888  164.6028 C.ar    1  UNL1        0.0377
     36 BR        140.9769  141.8917  164.0925 Br      1  UNL1       -0.0489
@<TRIPOS>BOND
     1     1     2    2
     2     2    19    1
     3    19    20    1
     4    20    21    1
     5    21    22   ar
     6    22    23   ar
     7    23    24   ar
     8    24    27    1
     9    27    28    2
    10    27    29    1
    11    29    30   ar
    12    30    31   ar
    13    31    32    1
    14    31    33   ar
    15    33    34   ar
    16    34    35   ar
    17    35    36    1
    18    24    25   ar
    19    25    26   ar
    20     2     3   am
    21     3     5    1
    22     5     6   ar
    23     6     7   ar
    24     7     8   ar
    25     8     9   ar
    26     9    11    1
    27    11    12    2
    28    11    13   am
    29    13    15    1
    30    15    16    1
    31    16    17    1
    32    17    18    1
    33     9    10   ar
    34    26    21   ar
    35    10     5   ar
    36    35    29   ar
    37    18    16    1
    38     3     4    1
    39    13    14    1
