@<TRIPOS>MOLECULE
*****
 20 21 0 0 0
SMALL
GASTEIGER

@<TRIPOS>ATOM
      1 C         138.9884  139.8063  166.6910 C.2     1  UNL1        0.1535
      2 N         138.9341  139.4458  168.1460 N.2     1  UNL1       -0.2470
      3 C         140.0661  140.1445  168.8392 C.3     1  UNL1        0.1720
      4 C         140.5077  140.1616  170.2726 C.3     1  UNL1        0.1653
      5 O         139.7539  139.3692  171.2992 O.3     1  UNL1       -0.3798
      6 C         141.7033  140.9711  170.6794 C.3     1  UNL1        0.1688
      7 O         142.1450  140.9882  172.1128 O.3     1  UNL1       -0.3794
      8 C         142.4571  141.7635  169.6528 C.3     1  UNL1        0.1746
      9 O         142.0154  141.7464  168.2194 O.3     1  UNL1       -0.3402
     10 C         140.8199  140.9369  167.8126 C.3     1  UNL1        0.1938
     11 S         140.1538  140.7279  166.4850 S.3     1  UNL1       -0.0497
     12 H         140.1677  139.4894  172.1682 H       1  UNL1        0.2105
     13 H         141.5540  140.4280  172.6399 H       1  UNL1        0.2105
     14 C         143.6526  142.5729  170.0596 C.3     1  UNL1        0.1693
     15 O         143.5022  143.6842  171.0559 O.3     1  UNL1       -0.3794
     16 H         142.9521  144.3869  170.6758 H       1  UNL1        0.2105
     17 N         138.0431  139.3291  165.6285 N.pl3   1  UNL1       -0.3135
     18 H         137.0853  139.2267  165.8318 H       1  UNL1        0.1487
     19 C         139.2963  137.7254  164.0138 C.3     1  UNL1        0.0230
     20 C         138.5572  139.0079  164.2565 C.3     1  UNL1        0.0887
@<TRIPOS>BOND
     1    19    20    1
     2    20    17    1
     3    17     1    1
     4     1     2    2
     5     3     2    1
     6     3     4    1
     7     4     5    1
     8     4     6    1
     9     6     7    1
    10     6     8    1
    11     8    14    1
    12    14    15    1
    13     8     9    1
    14    10     9    1
    15    10    11    1
    16    11     1    1
    17    10     3    1
    18    17    18    1
    19     5    12    1
    20     7    13    1
    21    15    16    1
@<TRIPOS>MOLECULE
*****
 20 21 0 0 0
SMALL
GASTEIGER

@<TRIPOS>ATOM
      1 C         142.5779  139.1099  166.4746 C.2     1  UNL1        0.1535
      2 N         143.0840  139.0082  167.8829 N.2     1  UNL1       -0.2470
      3 C         142.4554  140.1110  168.6822 C.3     1  UNL1        0.1720
      4 C         142.5821  140.5031  170.1244 C.3     1  UNL1        0.1653
      5 O         143.4766  139.7198  171.0389 O.3     1  UNL1       -0.3798
      6 C         141.8141  141.6786  170.6523 C.3     1  UNL1        0.1688
      7 O         141.9408  142.0707  172.0946 O.3     1  UNL1       -0.3794
      8 C         140.9196  142.4620  169.7379 C.3     1  UNL1        0.1746
      9 O         140.7930  142.0698  168.2956 O.3     1  UNL1       -0.3402
     10 C         141.5609  140.8944  167.7677 C.3     1  UNL1        0.1938
     11 S         141.6366  140.2757  166.4034 S.3     1  UNL1       -0.0497
     12 H         143.4437  140.1027  171.9295 H       1  UNL1        0.2105
     13 H         142.5532  141.4657  172.5416 H       1  UNL1        0.2105
     14 C         140.1517  143.6374  170.2657 C.3     1  UNL1        0.1693
     15 O         139.1281  143.4414  171.3445 O.3     1  UNL1       -0.3794
     16 H         138.3938  142.9090  171.0006 H       1  UNL1        0.2105
     17 N         142.9482  138.2049  165.3371 N.pl3   1  UNL1       -0.3135
     18 H         142.7368  137.2445  165.3834 H       1  UNL1        0.1487
     19 C         144.9046  139.5546  164.2881 C.3     1  UNL1        0.0230
     20 C         143.6404  138.7632  164.1292 C.3     1  UNL1        0.0887
@<TRIPOS>BOND
     1    19    20    1
     2    20    17    1
     3    17     1    1
     4     1     2    2
     5     3     2    1
     6     3     4    1
     7     4     5    1
     8     4     6    1
     9     6     7    1
    10     6     8    1
    11     8    14    1
    12    14    15    1
    13     8     9    1
    14    10     9    1
    15    10    11    1
    16    11     1    1
    17    10     3    1
    18    17    18    1
    19     5    12    1
    20     7    13    1
    21    15    16    1
@<TRIPOS>MOLECULE
*****
 20 21 0 0 0
SMALL
GASTEIGER

@<TRIPOS>ATOM
      1 C         143.3020  142.7298  165.6117 C.2     1  UNL1        0.1535
      2 N         143.9263  142.9115  166.9634 N.2     1  UNL1       -0.2470
      3 C         142.9917  142.3374  167.9866 C.3     1  UNL1        0.1720
      4 C         143.0798  142.2339  169.4804 C.3     1  UNL1        0.1653
      5 O         144.2816  142.7704  170.1998 O.3     1  UNL1       -0.3798
      6 C         141.9659  141.5937  170.2549 C.3     1  UNL1        0.1688
      7 O         142.0540  141.4902  171.7487 O.3     1  UNL1       -0.3794
      8 C         140.7640  141.0572  169.5354 C.3     1  UNL1        0.1746
      9 O         140.6760  141.1607  168.0416 O.3     1  UNL1       -0.3402
     10 C         141.7898  141.8008  167.2672 C.3     1  UNL1        0.1938
     11 S         141.9816  142.0434  165.7994 S.3     1  UNL1       -0.0497
     12 H         144.1796  142.6243  171.1533 H       1  UNL1        0.2105
     13 H         142.8881  141.8821  172.0513 H       1  UNL1        0.2105
     14 C         139.6503  140.4171  170.3098 C.3     1  UNL1        0.1693
     15 O         139.9621  139.4279  171.3935 O.3     1  UNL1       -0.3794
     16 H         140.3640  138.6363  171.0028 H       1  UNL1        0.2105
     17 N         143.8942  143.1592  164.3021 N.pl3   1  UNL1       -0.3135
     18 H         144.3335  142.4977  163.7201 H       1  UNL1        0.1487
     19 C         142.4855  145.2806  163.7874 C.3     1  UNL1        0.0230
     20 C         143.8171  144.5962  163.8793 C.3     1  UNL1        0.0887
@<TRIPOS>BOND
     1    19    20    1
     2    20    17    1
     3    17     1    1
     4     1     2    2
     5     3     2    1
     6     3     4    1
     7     4     5    1
     8     4     6    1
     9     6     7    1
    10     6     8    1
    11     8    14    1
    12    14    15    1
    13     8     9    1
    14    10     9    1
    15    10    11    1
    16    11     1    1
    17    10     3    1
    18    17    18    1
    19     5    12    1
    20     7    13    1
    21    15    16    1
@<TRIPOS>MOLECULE
*****
 20 21 0 0 0
SMALL
GASTEIGER

@<TRIPOS>ATOM
      1 C         139.7589  140.8562  166.8545 C.2     1  UNL1        0.1535
      2 N         138.6519  140.6548  165.8626 N.2     1  UNL1       -0.2470
      3 C         138.7690  141.7214  164.8144 C.3     1  UNL1        0.1720
      4 C         137.9540  142.0201  163.5910 C.3     1  UNL1        0.1653
      5 O         136.7747  141.1595  163.2469 O.3     1  UNL1       -0.3798
      6 C         138.3185  143.1795  162.7118 C.3     1  UNL1        0.1688
      7 O         137.5035  143.4783  161.4884 O.3     1  UNL1       -0.3794
      8 C         139.4978  144.0401  163.0559 C.3     1  UNL1        0.1746
      9 O         140.3128  143.7413  164.2793 O.3     1  UNL1       -0.3402
     10 C         139.9483  142.5820  165.1585 C.3     1  UNL1        0.1938
     11 S         140.5601  142.0473  166.4194 S.3     1  UNL1       -0.0497
     12 H         136.3619  141.4873  162.4326 H       1  UNL1        0.2105
     13 H         136.7844  142.8316  161.4131 H       1  UNL1        0.2105
     14 C         139.8623  145.1995  162.1767 C.3     1  UNL1        0.1693
     15 O         138.7987  146.1459  161.7043 O.3     1  UNL1       -0.3794
     16 H         138.1896  145.6781  161.1118 H       1  UNL1        0.2105
     17 N         140.0190  140.0144  168.0685 N.pl3   1  UNL1       -0.3135
     18 H         140.6497  139.2600  168.0185 H       1  UNL1        0.1487
     19 C         139.6684  141.5627  170.1251 C.3     1  UNL1        0.0230
     20 C         139.3182  140.3218  169.3585 C.3     1  UNL1        0.0887
@<TRIPOS>BOND
     1    19    20    1
     2    20    17    1
     3    17     1    1
     4     1     2    2
     5     3     2    1
     6     3     4    1
     7     4     5    1
     8     4     6    1
     9     6     7    1
    10     6     8    1
    11     8    14    1
    12    14    15    1
    13     8     9    1
    14    10     9    1
    15    10    11    1
    16    11     1    1
    17    10     3    1
    18    17    18    1
    19     5    12    1
    20     7    13    1
    21    15    16    1
@<TRIPOS>MOLECULE
*****
 20 21 0 0 0
SMALL
GASTEIGER

@<TRIPOS>ATOM
      1 C         141.5342  140.9148  167.4679 C.2     1  UNL1        0.1535
      2 N         140.3434  140.1280  167.0067 N.2     1  UNL1       -0.2470
      3 C         139.6233  140.9407  165.9718 C.3     1  UNL1        0.1720
      4 C         138.3848  140.6735  165.1689 C.3     1  UNL1        0.1653
      5 O         137.6390  139.3844  165.3472 O.3     1  UNL1       -0.3798
      6 C         137.8921  141.6955  164.1875 C.3     1  UNL1        0.1688
      7 O         136.6537  141.4282  163.3846 O.3     1  UNL1       -0.3794
      8 C         138.6380  142.9846  164.0092 C.3     1  UNL1        0.1746
      9 O         139.8765  143.2518  164.8122 O.3     1  UNL1       -0.3402
     10 C         140.3691  142.2299  165.7935 C.3     1  UNL1        0.1938
     11 S         141.5501  142.2138  166.7181 S.3     1  UNL1       -0.0497
     12 H         136.8689  139.3721  164.7576 H       1  UNL1        0.2105
     13 H         136.2976  140.5571  163.6197 H       1  UNL1        0.2105
     14 C         138.1454  144.0065  163.0279 C.3     1  UNL1        0.1693
     15 O         137.6861  143.5780  161.6657 O.3     1  UNL1       -0.3794
     16 H         138.4391  143.2240  161.1672 H       1  UNL1        0.2105
     17 N         142.5337  140.4791  168.4981 N.pl3   1  UNL1       -0.3135
     18 H         143.0603  139.6593  168.3572 H       1  UNL1        0.1487
     19 C         143.8065  142.3366  169.7940 C.3     1  UNL1        0.0230
     20 C         142.7308  141.2924  169.7429 C.3     1  UNL1        0.0887
@<TRIPOS>BOND
     1    19    20    1
     2    20    17    1
     3    17     1    1
     4     1     2    2
     5     3     2    1
     6     3     4    1
     7     4     5    1
     8     4     6    1
     9     6     7    1
    10     6     8    1
    11     8    14    1
    12    14    15    1
    13     8     9    1
    14    10     9    1
    15    10    11    1
    16    11     1    1
    17    10     3    1
    18    17    18    1
    19     5    12    1
    20     7    13    1
    21    15    16    1
@<TRIPOS>MOLECULE
*****
 20 21 0 0 0
SMALL
GASTEIGER

@<TRIPOS>ATOM
      1 C         140.0335  142.1422  164.9112 C.2     1  UNL1        0.1535
      2 N         139.3228  141.0554  165.6619 N.2     1  UNL1       -0.2470
      3 C         139.8293  141.0596  167.0738 C.3     1  UNL1        0.1720
      4 C         139.4906  140.2122  168.2642 C.3     1  UNL1        0.1653
      5 O         138.4667  139.1228  168.1424 O.3     1  UNL1       -0.3798
      6 C         140.1757  140.4542  169.5765 C.3     1  UNL1        0.1688
      7 O         139.8370  139.6068  170.7669 O.3     1  UNL1       -0.3794
      8 C         141.1996  141.5436  169.6983 C.3     1  UNL1        0.1746
      9 O         141.5384  142.3911  168.5078 O.3     1  UNL1       -0.3402
     10 C         140.8532  142.1491  167.1956 C.3     1  UNL1        0.1938
     11 S         140.9794  142.8181  165.8590 S.3     1  UNL1       -0.0497
     12 H         138.3679  138.6749  168.9971 H       1  UNL1        0.2105
     13 H         139.1624  138.9555  170.5187 H       1  UNL1        0.2105
     14 C         141.8848  141.7856  171.0106 C.3     1  UNL1        0.1693
     15 O         142.1785  140.6349  171.9268 O.3     1  UNL1       -0.3794
     16 H         141.3451  140.2552  172.2464 H       1  UNL1        0.2105
     17 N         139.8335  142.4918  163.4662 N.pl3   1  UNL1       -0.3135
     18 H         140.4057  142.0831  162.7772 H       1  UNL1        0.1487
     19 C         137.8723  144.0660  164.1182 C.3     1  UNL1        0.0230
     20 C         138.7618  143.4640  163.0712 C.3     1  UNL1        0.0887
@<TRIPOS>BOND
     1    19    20    1
     2    20    17    1
     3    17     1    1
     4     1     2    2
     5     3     2    1
     6     3     4    1
     7     4     5    1
     8     4     6    1
     9     6     7    1
    10     6     8    1
    11     8    14    1
    12    14    15    1
    13     8     9    1
    14    10     9    1
    15    10    11    1
    16    11     1    1
    17    10     3    1
    18    17    18    1
    19     5    12    1
    20     7    13    1
    21    15    16    1
@<TRIPOS>MOLECULE
*****
 20 21 0 0 0
SMALL
GASTEIGER

@<TRIPOS>ATOM
      1 C         138.8909  140.7010  165.1445 C.2     1  UNL1        0.1535
      2 N         138.3364  141.8333  164.3318 N.2     1  UNL1       -0.2470
      3 C         139.4377  142.8272  164.1097 C.3     1  UNL1        0.1720
      4 C         139.4754  144.1370  163.3797 C.3     1  UNL1        0.1653
      5 O         138.2403  144.6551  162.7043 O.3     1  UNL1       -0.3798
      6 C         140.7483  144.9288  163.3250 C.3     1  UNL1        0.1688
      7 O         140.7860  146.2386  162.5950 O.3     1  UNL1       -0.3794
      8 C         141.9834  144.4107  164.0003 C.3     1  UNL1        0.1746
      9 O         141.9457  143.1009  164.7303 O.3     1  UNL1       -0.3402
     10 C         140.6728  142.3091  164.7850 C.3     1  UNL1        0.1938
     11 S         140.3349  140.9951  165.4245 S.3     1  UNL1       -0.0497
     12 H         138.4354  145.5065  162.2825 H       1  UNL1        0.2105
     13 H         139.9114  146.4246  162.2191 H       1  UNL1        0.2105
     14 C         143.2563  145.2025  163.9457 C.3     1  UNL1        0.1693
     15 O         143.8987  145.4993  162.6231 O.3     1  UNL1       -0.3794
     16 H         144.2046  144.6721  162.2193 H       1  UNL1        0.2105
     17 N         138.1342  139.4877  165.5975 N.pl3   1  UNL1       -0.3135
     18 H         137.2462  139.5872  166.0108 H       1  UNL1        0.1487
     19 C         139.0739  137.6262  164.0477 C.3     1  UNL1        0.0230
     20 C         138.7305  138.1227  165.4208 C.3     1  UNL1        0.0887
@<TRIPOS>BOND
     1    19    20    1
     2    20    17    1
     3    17     1    1
     4     1     2    2
     5     3     2    1
     6     3     4    1
     7     4     5    1
     8     4     6    1
     9     6     7    1
    10     6     8    1
    11     8    14    1
    12    14    15    1
    13     8     9    1
    14    10     9    1
    15    10    11    1
    16    11     1    1
    17    10     3    1
    18    17    18    1
    19     5    12    1
    20     7    13    1
    21    15    16    1
@<TRIPOS>MOLECULE
*****
 20 21 0 0 0
SMALL
GASTEIGER

@<TRIPOS>ATOM
      1 C         140.2687  142.3013  165.7421 C.2     1  UNL1        0.1535
      2 N         140.3025  143.1499  166.9786 N.2     1  UNL1       -0.2470
      3 C         140.9193  142.3398  168.0801 C.3     1  UNL1        0.1720
      4 C         141.2095  142.6565  169.5172 C.3     1  UNL1        0.1653
      5 O         140.8621  144.0058  170.0729 O.3     1  UNL1       -0.3798
      6 C         141.8471  141.6238  170.3989 C.3     1  UNL1        0.1688
      7 O         142.1372  141.9404  171.8360 O.3     1  UNL1       -0.3794
      8 C         142.1944  140.2745  169.8432 C.3     1  UNL1        0.1746
      9 O         141.9042  139.9579  168.4060 O.3     1  UNL1       -0.3402
     10 C         141.2667  140.9905  167.5244 C.3     1  UNL1        0.1938
     11 S         140.8646  140.9668  166.0795 S.3     1  UNL1       -0.0497
     12 H         141.1138  144.0446  171.0089 H       1  UNL1        0.2105
     13 H         141.8531  142.8471  172.0311 H       1  UNL1        0.2105
     14 C         142.8320  139.2418  170.7247 C.3     1  UNL1        0.1693
     15 O         144.0741  139.5774  171.4957 O.3     1  UNL1       -0.3794
     16 H         144.8048  139.7370  170.8780 H       1  UNL1        0.2105
     17 N         139.7331  142.7147  164.4034 N.pl3   1  UNL1       -0.3135
     18 H         140.3412  142.7950  163.6333 H       1  UNL1        0.1487
     19 C         137.7126  144.3227  164.6898 C.3     1  UNL1        0.0230
     20 C         138.2710  143.0058  164.2379 C.3     1  UNL1        0.0887
@<TRIPOS>BOND
     1    19    20    1
     2    20    17    1
     3    17     1    1
     4     1     2    2
     5     3     2    1
     6     3     4    1
     7     4     5    1
     8     4     6    1
     9     6     7    1
    10     6     8    1
    11     8    14    1
    12    14    15    1
    13     8     9    1
    14    10     9    1
    15    10    11    1
    16    11     1    1
    17    10     3    1
    18    17    18    1
    19     5    12    1
    20     7    13    1
    21    15    16    1
@<TRIPOS>MOLECULE
*****
 20 21 0 0 0
SMALL
GASTEIGER

@<TRIPOS>ATOM
      1 C         140.0054  139.9135  165.1368 C.2     1  UNL1        0.1535
      2 N         141.1995  139.2625  165.7695 N.2     1  UNL1       -0.2470
      3 C         141.3481  139.8147  167.1562 C.3     1  UNL1        0.1720
      4 C         142.3447  139.5422  168.2436 C.3     1  UNL1        0.1653
      5 O         143.4470  138.5499  168.0192 O.3     1  UNL1       -0.3798
      6 C         142.2391  140.2620  169.5554 C.3     1  UNL1        0.1688
      7 O         143.2357  139.9894  170.6428 O.3     1  UNL1       -0.3794
      8 C         141.1368  141.2543  169.7798 C.3     1  UNL1        0.1746
      9 O         140.1402  141.5268  168.6923 O.3     1  UNL1       -0.3402
     10 C         140.2458  140.8070  167.3806 C.3     1  UNL1        0.1938
     11 S         139.4160  140.8681  166.1325 S.3     1  UNL1       -0.0497
     12 H         143.9982  138.4934  168.8154 H       1  UNL1        0.2105
     13 H         143.8757  139.3280  170.3364 H       1  UNL1        0.2105
     14 C         141.0312  141.9740  171.0916 C.3     1  UNL1        0.1693
     15 O         142.2683  142.2695  171.8867 O.3     1  UNL1       -0.3794
     16 H         142.6644  141.4375  172.1895 H       1  UNL1        0.2105
     17 N         139.4910  139.6553  163.7516 N.pl3   1  UNL1       -0.3135
     18 H         139.5704  140.3509  163.0594 H       1  UNL1        0.1487
     19 C         138.4151  138.0484  162.0166 C.3     1  UNL1        0.0230
     20 C         138.8555  138.3374  163.4211 C.3     1  UNL1        0.0887
@<TRIPOS>BOND
     1    19    20    1
     2    20    17    1
     3    17     1    1
     4     1     2    2
     5     3     2    1
     6     3     4    1
     7     4     5    1
     8     4     6    1
     9     6     7    1
    10     6     8    1
    11     8    14    1
    12    14    15    1
    13     8     9    1
    14    10     9    1
    15    10    11    1
    16    11     1    1
    17    10     3    1
    18    17    18    1
    19     5    12    1
    20     7    13    1
    21    15    16    1
