@<TRIPOS>MOLECULE
*****
 30 34 0 0 0
SMALL
GASTEIGER

@<TRIPOS>ATOM
      1 O         143.6699  139.2497  155.9516 O.2     1  UNL1       -0.2258
      2 C         143.3591  138.7463  157.3300 C.2     1  UNL1        0.4086
      3 O         143.4765  139.5315  158.6028 O.3     1  UNL1       -0.4398
      4 C         143.0663  138.6398  159.7371 C.3     1  UNL1        0.1561
      5 C         143.4677  140.0213  160.1615 C.3     1  UNL1        0.0425
      6 C         143.4343  140.3995  161.6126 C.3     1  UNL1        0.0160
      7 C         142.9995  139.3961  162.6394 C.3     1  UNL1        0.1122
      8 C         142.5981  138.0146  162.2149 C.3     1  UNL1        0.0160
      9 C         142.6315  137.6364  160.7638 C.3     1  UNL1        0.0425
     10 C         142.6953  137.3035  159.1653 C.3     1  UNL1        0.1414
     11 N         142.8763  137.3693  157.6778 N.am    1  UNL1       -0.2215
     12 C         142.9661  139.7743  164.0906 C.2     1  UNL1        0.3506
     13 N         143.1079  141.1613  164.6437 N.2     1  UNL1       -0.0351
     14 C         143.0145  141.0761  166.1384 C.2     1  UNL1        0.2317
     15 C         143.0854  142.1234  167.2098 C.2     1  UNL1        0.0537
     16 C         142.9566  141.7310  168.6519 C.2     1  UNL1        0.0714
     17 C         142.7570  140.2913  169.0225 C.2     1  UNL1       -0.0133
     18 C         142.6861  139.2440  167.9510 C.3     1  UNL1        0.1037
     19 C         142.8149  139.6363  166.5090 C.2     1  UNL1        0.2174
     20 N         142.7849  138.8318  165.2434 N.2     1  UNL1       -0.0389
     21 C         143.0275  142.7784  169.7233 C.3     1  UNL1        0.4184
     22 F         143.0984  143.8258  170.7948 F       1  UNL1       -0.1659
     23 F         144.4671  142.4333  169.9654 F       1  UNL1       -0.1659
     24 F         141.5879  143.1234  169.4813 F       1  UNL1       -0.1659
     25 C         142.6195  136.2541  156.7082 C.ar    1  UNL1        0.0571
     26 C         141.3374  136.2167  155.9305 C.ar    1  UNL1        0.0150
     27 C         141.0807  135.1013  154.9609 C.ar    1  UNL1        0.0013
     28 C         142.1060  134.0235  154.7689 C.ar    1  UNL1        0.0001
     29 C         143.3882  134.0609  155.5466 C.ar    1  UNL1        0.0013
     30 C         143.6449  135.1762  156.5162 C.ar    1  UNL1        0.0150
@<TRIPOS>BOND
     1     1     2    2
     2     2     3    1
     3     3     4    1
     4     4     5    1
     5     5     6    1
     6     6     7    1
     7     7    12    1
     8    12    13    2
     9    13    14    1
    10    14    15    2
    11    15    16    1
    12    16    21    1
    13    21    22    1
    14    21    23    1
    15    21    24    1
    16    16    17    2
    17    17    18    1
    18    18    19    1
    19    19    20    2
    20     7     8    1
    21     8     9    1
    22     4    10    1
    23    10    11    1
    24    11    25    1
    25    25    26   ar
    26    26    27   ar
    27    27    28   ar
    28    28    29   ar
    29    29    30   ar
    30    11     2   am
    31    30    25   ar
    32     9     4    1
    33    20    12    1
    34    19    14    1
@<TRIPOS>MOLECULE
*****
 30 34 0 0 0
SMALL
GASTEIGER

@<TRIPOS>ATOM
      1 O         137.4713  138.5252  166.6479 O.2     1  UNL1       -0.2258
      2 C         138.2751  139.4912  165.8289 C.2     1  UNL1        0.4086
      3 O         137.9688  139.9260  164.4262 O.3     1  UNL1       -0.4398
      4 C         139.0307  140.8955  163.9992 C.3     1  UNL1        0.1561
      5 C         137.9894  140.6310  162.9524 C.3     1  UNL1        0.0425
      6 C         138.0740  141.3159  161.6206 C.3     1  UNL1        0.0160
      7 C         139.1998  142.2652  161.3356 C.3     1  UNL1        0.1122
      8 C         140.2411  142.5297  162.3823 C.3     1  UNL1        0.0160
      9 C         140.1565  141.8449  163.7141 C.3     1  UNL1        0.0425
     10 C         139.9933  141.0599  165.1379 C.3     1  UNL1        0.1414
     11 N         139.5263  140.1920  166.2686 N.am    1  UNL1       -0.2215
     12 C         139.2843  142.9501  160.0037 C.2     1  UNL1        0.3506
     13 N         139.8346  144.3225  159.7513 N.2     1  UNL1       -0.0351
     14 C         139.7237  144.6034  158.2820 C.2     1  UNL1        0.2317
     15 C         140.1063  145.7958  157.4564 C.2     1  UNL1        0.0537
     16 C         139.8700  145.7895  155.9751 C.2     1  UNL1        0.0714
     17 C         139.2511  144.5907  155.3194 C.2     1  UNL1       -0.0133
     18 C         138.8685  143.3982  156.1450 C.3     1  UNL1        0.1037
     19 C         139.1048  143.4045  157.6263 C.2     1  UNL1        0.2174
     20 N         138.8332  142.3828  158.6904 N.2     1  UNL1       -0.0389
     21 C         140.2526  146.9820  155.1495 C.3     1  UNL1        0.4184
     22 F         140.6352  148.1744  154.3239 F       1  UNL1       -0.1659
     23 F         139.2772  147.8254  155.9157 F       1  UNL1       -0.1659
     24 F         141.2280  146.1385  154.3832 F       1  UNL1       -0.1659
     25 C         140.1933  140.0499  167.6045 C.ar    1  UNL1        0.0571
     26 C         139.3949  140.2179  168.8632 C.ar    1  UNL1        0.0150
     27 C         140.0620  140.0758  170.1992 C.ar    1  UNL1        0.0013
     28 C         141.5275  139.7656  170.2765 C.ar    1  UNL1        0.0001
     29 C         142.3260  139.5976  169.0178 C.ar    1  UNL1        0.0013
     30 C         141.6589  139.7397  167.6819 C.ar    1  UNL1        0.0150
@<TRIPOS>BOND
     1     1     2    2
     2     2     3    1
     3     3     4    1
     4     4     5    1
     5     5     6    1
     6     6     7    1
     7     7    12    1
     8    12    13    2
     9    13    14    1
    10    14    15    2
    11    15    16    1
    12    16    21    1
    13    21    22    1
    14    21    23    1
    15    21    24    1
    16    16    17    2
    17    17    18    1
    18    18    19    1
    19    19    20    2
    20     7     8    1
    21     8     9    1
    22     4    10    1
    23    10    11    1
    24    11    25    1
    25    25    26   ar
    26    26    27   ar
    27    27    28   ar
    28    28    29   ar
    29    29    30   ar
    30    11     2   am
    31    30    25   ar
    32     9     4    1
    33    20    12    1
    34    19    14    1
@<TRIPOS>MOLECULE
*****
 30 34 0 0 0
SMALL
GASTEIGER

@<TRIPOS>ATOM
      1 O         139.3612  143.3794  155.4790 O.2     1  UNL1       -0.2258
      2 C         139.7247  143.9855  156.8021 C.2     1  UNL1        0.4086
      3 O         139.9214  143.2403  158.0890 O.3     1  UNL1       -0.4398
      4 C         140.2735  144.2374  159.1529 C.3     1  UNL1        0.1561
      5 C         140.2147  142.8201  159.6405 C.3     1  UNL1        0.0425
      6 C         140.4964  142.5103  161.0808 C.3     1  UNL1        0.0160
      7 C         140.8370  143.6177  162.0335 C.3     1  UNL1        0.1122
      8 C         140.8958  145.0350  161.5459 C.3     1  UNL1        0.0160
      9 C         140.6140  145.3449  160.1056 C.3     1  UNL1        0.0425
     10 C         140.2944  145.5989  158.5234 C.3     1  UNL1        0.1414
     11 N         139.9552  145.4432  157.0706 N.am    1  UNL1       -0.2215
     12 C         141.1187  143.3078  163.4739 C.2     1  UNL1        0.3506
     13 N         140.1403  143.4126  164.6061 N.2     1  UNL1       -0.0351
     14 C         140.8452  143.0083  165.8668 C.2     1  UNL1        0.2317
     15 C         140.3822  142.9173  167.2907 C.2     1  UNL1        0.0537
     16 C         141.3333  142.4715  168.3616 C.2     1  UNL1        0.0714
     17 C         142.7473  142.1168  168.0086 C.2     1  UNL1       -0.0133
     18 C         143.2104  142.2078  166.5848 C.3     1  UNL1        0.1037
     19 C         142.2594  142.6536  165.5139 C.2     1  UNL1        0.2174
     20 N         142.4283  142.8387  164.0350 N.2     1  UNL1       -0.0389
     21 C         140.8703  142.3805  169.7854 C.3     1  UNL1        0.4184
     22 F         140.4073  142.2895  171.2093 F       1  UNL1       -0.1659
     23 F         141.7214  141.1615  169.9843 F       1  UNL1       -0.1659
     24 F         140.0192  143.5995  169.5866 F       1  UNL1       -0.1659
     25 C         139.8628  146.5506  156.0632 C.ar    1  UNL1        0.0571
     26 C         138.9942  147.7425  156.3365 C.ar    1  UNL1        0.0150
     27 C         138.9017  148.8500  155.3290 C.ar    1  UNL1        0.0013
     28 C         139.6780  148.7656  154.0483 C.ar    1  UNL1        0.0001
     29 C         140.5467  147.5736  153.7750 C.ar    1  UNL1        0.0013
     30 C         140.6391  146.4661  154.7825 C.ar    1  UNL1        0.0150
@<TRIPOS>BOND
     1     1     2    2
     2     2     3    1
     3     3     4    1
     4     4     5    1
     5     5     6    1
     6     6     7    1
     7     7    12    1
     8    12    13    2
     9    13    14    1
    10    14    15    2
    11    15    16    1
    12    16    21    1
    13    21    22    1
    14    21    23    1
    15    21    24    1
    16    16    17    2
    17    17    18    1
    18    18    19    1
    19    19    20    2
    20     7     8    1
    21     8     9    1
    22     4    10    1
    23    10    11    1
    24    11    25    1
    25    25    26   ar
    26    26    27   ar
    27    27    28   ar
    28    28    29   ar
    29    29    30   ar
    30    11     2   am
    31    30    25   ar
    32     9     4    1
    33    20    12    1
    34    19    14    1
@<TRIPOS>MOLECULE
*****
 30 34 0 0 0
SMALL
GASTEIGER

@<TRIPOS>ATOM
      1 O         140.0229  139.8260  166.4248 O.2     1  UNL1       -0.2258
      2 C         140.4462  141.0259  165.6304 C.2     1  UNL1        0.4086
      3 O         140.2311  141.2306  164.1600 O.3     1  UNL1       -0.4398
      4 C         140.8110  142.5630  163.7878 C.3     1  UNL1        0.1561
      5 C         140.1964  141.8222  162.6374 C.3     1  UNL1        0.0425
      6 C         140.2018  142.4292  161.2657 C.3     1  UNL1        0.0160
      7 C         140.8218  143.7770  161.0445 C.3     1  UNL1        0.1122
      8 C         141.4364  144.5178  162.1949 C.3     1  UNL1        0.0160
      9 C         141.4310  143.9108  163.5665 C.3     1  UNL1        0.0425
     10 C         141.3845  143.1817  165.0281 C.3     1  UNL1        0.1414
     11 N         141.1591  142.2318  166.1669 N.am    1  UNL1       -0.2215
     12 C         140.8272  144.3840  159.6728 C.2     1  UNL1        0.3506
     13 N         139.9750  145.5291  159.2120 N.2     1  UNL1       -0.0351
     14 C         140.3069  145.8053  157.7755 C.2     1  UNL1        0.2317
     15 C         139.7828  146.8182  156.8011 C.2     1  UNL1        0.0537
     16 C         140.3163  146.8566  155.3996 C.2     1  UNL1        0.0714
     17 C         141.3737  145.8822  154.9726 C.2     1  UNL1       -0.0133
     18 C         141.8977  144.8693  155.9470 C.3     1  UNL1        0.1037
     19 C         141.3643  144.8308  157.3484 C.2     1  UNL1        0.2174
     20 N         141.6859  143.9525  158.5210 N.2     1  UNL1       -0.0389
     21 C         139.7923  147.8695  154.4252 C.3     1  UNL1        0.4184
     22 F         139.2683  148.8824  153.4508 F       1  UNL1       -0.1659
     23 F         138.6399  148.1553  155.3419 F       1  UNL1       -0.1659
     24 F         140.9446  147.5837  153.5084 F       1  UNL1       -0.1659
     25 C         141.5736  142.4495  167.5918 C.ar    1  UNL1        0.0571
     26 C         140.5870  142.9853  168.5865 C.ar    1  UNL1        0.0150
     27 C         141.0016  143.2030  170.0116 C.ar    1  UNL1        0.0013
     28 C         142.4029  142.8849  170.4419 C.ar    1  UNL1        0.0001
     29 C         143.3896  142.3491  169.4472 C.ar    1  UNL1        0.0013
     30 C         142.9749  142.1314  168.0222 C.ar    1  UNL1        0.0150
@<TRIPOS>BOND
     1     1     2    2
     2     2     3    1
     3     3     4    1
     4     4     5    1
     5     5     6    1
     6     6     7    1
     7     7    12    1
     8    12    13    2
     9    13    14    1
    10    14    15    2
    11    15    16    1
    12    16    21    1
    13    21    22    1
    14    21    23    1
    15    21    24    1
    16    16    17    2
    17    17    18    1
    18    18    19    1
    19    19    20    2
    20     7     8    1
    21     8     9    1
    22     4    10    1
    23    10    11    1
    24    11    25    1
    25    25    26   ar
    26    26    27   ar
    27    27    28   ar
    28    28    29   ar
    29    29    30   ar
    30    11     2   am
    31    30    25   ar
    32     9     4    1
    33    20    12    1
    34    19    14    1
@<TRIPOS>MOLECULE
*****
 30 34 0 0 0
SMALL
GASTEIGER

@<TRIPOS>ATOM
      1 O         143.8238  137.8371  156.3185 O.2     1  UNL1       -0.2258
      2 C         143.0129  138.1788  157.5332 C.2     1  UNL1        0.4086
      3 O         143.5553  138.4871  158.8974 O.3     1  UNL1       -0.4398
      4 C         142.3948  138.7710  159.8044 C.3     1  UNL1        0.1561
      5 C         143.7322  138.8673  160.4766 C.3     1  UNL1        0.0425
      6 C         143.8165  139.2218  161.9316 C.3     1  UNL1        0.0160
      7 C         142.5634  139.4799  162.7145 C.3     1  UNL1        0.1122
      8 C         141.2259  139.3836  162.0423 C.3     1  UNL1        0.0160
      9 C         141.1416  139.0292  160.5873 C.3     1  UNL1        0.0425
     10 C         141.1351  138.6383  159.0008 C.3     1  UNL1        0.1414
     11 N         141.5171  138.2723  157.5972 N.am    1  UNL1       -0.2215
     12 C         142.6477  139.8344  164.1696 C.2     1  UNL1        0.3506
     13 N         142.8751  141.2066  164.7311 N.2     1  UNL1       -0.0351
     14 C         142.8874  141.0992  166.2272 C.2     1  UNL1        0.2317
     15 C         143.0703  142.1254  167.3057 C.2     1  UNL1        0.0537
     16 C         143.0335  141.7130  168.7475 C.2     1  UNL1        0.0714
     17 C         142.8138  140.2743  169.1106 C.2     1  UNL1       -0.0133
     18 C         142.6309  139.2480  168.0321 C.3     1  UNL1        0.1037
     19 C         142.6677  139.6604  166.5904 C.2     1  UNL1        0.2174
     20 N         142.5196  138.8788  165.3187 N.2     1  UNL1       -0.0389
     21 C         143.2164  142.7393  169.8260 C.3     1  UNL1        0.4184
     22 F         143.3993  143.7656  170.9046 F       1  UNL1       -0.1659
     23 F         141.7317  142.9462  169.8809 F       1  UNL1       -0.1659
     24 F         144.7010  142.5324  169.7712 F       1  UNL1       -0.1659
     25 C         140.5698  138.0405  156.4576 C.ar    1  UNL1        0.0571
     26 C         140.7604  136.8599  155.5521 C.ar    1  UNL1        0.0150
     27 C         139.8130  136.6281  154.4125 C.ar    1  UNL1        0.0013
     28 C         138.6749  137.5768  154.1784 C.ar    1  UNL1        0.0001
     29 C         138.4843  138.7574  155.0839 C.ar    1  UNL1        0.0013
     30 C         139.4317  138.9892  156.2235 C.ar    1  UNL1        0.0150
@<TRIPOS>BOND
     1     1     2    2
     2     2     3    1
     3     3     4    1
     4     4     5    1
     5     5     6    1
     6     6     7    1
     7     7    12    1
     8    12    13    2
     9    13    14    1
    10    14    15    2
    11    15    16    1
    12    16    21    1
    13    21    22    1
    14    21    23    1
    15    21    24    1
    16    16    17    2
    17    17    18    1
    18    18    19    1
    19    19    20    2
    20     7     8    1
    21     8     9    1
    22     4    10    1
    23    10    11    1
    24    11    25    1
    25    25    26   ar
    26    26    27   ar
    27    27    28   ar
    28    28    29   ar
    29    29    30   ar
    30    11     2   am
    31    30    25   ar
    32     9     4    1
    33    20    12    1
    34    19    14    1
@<TRIPOS>MOLECULE
*****
 30 34 0 0 0
SMALL
GASTEIGER

@<TRIPOS>ATOM
      1 O         144.8506  143.8930  165.9040 O.2     1  UNL1       -0.2258
      2 C         143.9721  142.8424  165.2922 C.2     1  UNL1        0.4086
      3 O         144.0812  142.3054  163.8958 O.3     1  UNL1       -0.4398
      4 C         143.0067  141.2754  163.7100 C.3     1  UNL1        0.1561
      5 C         143.8674  141.4844  162.4994 C.3     1  UNL1        0.0425
      6 C         143.6111  140.6930  161.2513 C.3     1  UNL1        0.0160
      7 C         142.4940  139.6926  161.2137 C.3     1  UNL1        0.1122
      8 C         141.6333  139.4836  162.4242 C.3     1  UNL1        0.0160
      9 C         141.8896  140.2750  163.6723 C.3     1  UNL1        0.0425
     10 C         142.2335  141.1757  164.9916 C.3     1  UNL1        0.1414
     11 N         142.8302  142.1441  165.9694 N.am    1  UNL1       -0.2215
     12 C         142.2377  138.9012  159.9654 C.2     1  UNL1        0.3506
     13 N         143.1765  137.9125  159.3400 N.2     1  UNL1       -0.0351
     14 C         142.5166  137.3598  158.1115 C.2     1  UNL1        0.2317
     15 C         142.9679  136.3509  157.0974 C.2     1  UNL1        0.0537
     16 C         142.0726  135.9891  155.9495 C.2     1  UNL1        0.0714
     17 C         140.7260  136.6362  155.8158 C.2     1  UNL1       -0.0133
     18 C         140.2747  137.6451  156.8299 C.3     1  UNL1        0.1037
     19 C         141.1699  138.0069  157.9777 C.2     1  UNL1        0.2174
     20 N         140.9976  138.9595  159.1235 N.2     1  UNL1       -0.0389
     21 C         142.5239  134.9802  154.9354 C.3     1  UNL1        0.4184
     22 F         142.9752  133.9713  153.9213 F       1  UNL1       -0.1659
     23 F         141.1435  134.3942  154.9041 F       1  UNL1       -0.1659
     24 F         143.9043  135.5662  154.9667 F       1  UNL1       -0.1659
     25 C         142.3664  142.3739  167.3772 C.ar    1  UNL1        0.0571
     26 C         140.9187  142.6525  167.6539 C.ar    1  UNL1        0.0150
     27 C         140.4549  142.8824  169.0617 C.ar    1  UNL1        0.0013
     28 C         141.4387  142.8336  170.1929 C.ar    1  UNL1        0.0001
     29 C         142.8865  142.5551  169.9163 C.ar    1  UNL1        0.0013
     30 C         143.3502  142.3252  168.5084 C.ar    1  UNL1        0.0150
@<TRIPOS>BOND
     1     1     2    2
     2     2     3    1
     3     3     4    1
     4     4     5    1
     5     5     6    1
     6     6     7    1
     7     7    12    1
     8    12    13    2
     9    13    14    1
    10    14    15    2
    11    15    16    1
    12    16    21    1
    13    21    22    1
    14    21    23    1
    15    21    24    1
    16    16    17    2
    17    17    18    1
    18    18    19    1
    19    19    20    2
    20     7     8    1
    21     8     9    1
    22     4    10    1
    23    10    11    1
    24    11    25    1
    25    25    26   ar
    26    26    27   ar
    27    27    28   ar
    28    28    29   ar
    29    29    30   ar
    30    11     2   am
    31    30    25   ar
    32     9     4    1
    33    20    12    1
    34    19    14    1
@<TRIPOS>MOLECULE
*****
 30 34 0 0 0
SMALL
GASTEIGER

@<TRIPOS>ATOM
      1 O         138.9627  144.6447  165.6089 O.2     1  UNL1       -0.2258
      2 C         139.9667  143.7345  164.9660 C.2     1  UNL1        0.4086
      3 O         140.5428  143.8892  163.5896 O.3     1  UNL1       -0.4398
      4 C         141.5031  142.7601  163.3594 C.3     1  UNL1        0.1561
      5 C         141.3809  143.7031  162.1994 C.3     1  UNL1        0.0425
      6 C         142.1829  143.4679  160.9539 C.3     1  UNL1        0.0160
      7 C         143.1073  142.2896  160.8684 C.3     1  UNL1        0.1122
      8 C         143.2295  141.3466  162.0285 C.3     1  UNL1        0.0160
      9 C         142.4274  141.5818  163.2740 C.3     1  UNL1        0.0425
     10 C         141.5205  141.9075  164.5935 C.3     1  UNL1        0.1414
     11 N         140.5710  142.5097  165.5864 N.am    1  UNL1       -0.2215
     12 C         143.9093  142.0544  159.6229 C.2     1  UNL1        0.3506
     13 N         145.1451  142.8008  159.2159 N.2     1  UNL1       -0.0351
     14 C         145.6160  142.2391  157.9071 C.2     1  UNL1        0.2317
     15 C         146.7830  142.5822  157.0294 C.2     1  UNL1        0.0537
     16 C         147.0051  141.8316  155.7497 C.2     1  UNL1        0.0714
     17 C         146.0603  140.7381  155.3479 C.2     1  UNL1       -0.0133
     18 C         144.8933  140.3951  156.2256 C.3     1  UNL1        0.1037
     19 C         144.6711  141.1455  157.5052 C.2     1  UNL1        0.2174
     20 N         143.6164  141.0314  158.5656 N.2     1  UNL1       -0.0389
     21 C         148.1721  142.1747  154.8720 C.3     1  UNL1        0.4184
     22 F         149.3391  142.5177  153.9942 F       1  UNL1       -0.1659
     23 F         149.1117  141.8585  155.9977 F       1  UNL1       -0.1659
     24 F         147.2325  142.4908  153.7463 F       1  UNL1       -0.1659
     25 C         140.2772  141.9802  166.9586 C.ar    1  UNL1        0.0571
     26 C         140.5533  142.8281  168.1647 C.ar    1  UNL1        0.0150
     27 C         140.2595  142.2986  169.5371 C.ar    1  UNL1        0.0013
     28 C         139.6898  140.9210  169.7033 C.ar    1  UNL1        0.0001
     29 C         139.4137  140.0729  168.4972 C.ar    1  UNL1        0.0013
     30 C         139.7075  140.6026  167.1249 C.ar    1  UNL1        0.0150
@<TRIPOS>BOND
     1     1     2    2
     2     2     3    1
     3     3     4    1
     4     4     5    1
     5     5     6    1
     6     6     7    1
     7     7    12    1
     8    12    13    2
     9    13    14    1
    10    14    15    2
    11    15    16    1
    12    16    21    1
    13    21    22    1
    14    21    23    1
    15    21    24    1
    16    16    17    2
    17    17    18    1
    18    18    19    1
    19    19    20    2
    20     7     8    1
    21     8     9    1
    22     4    10    1
    23    10    11    1
    24    11    25    1
    25    25    26   ar
    26    26    27   ar
    27    27    28   ar
    28    28    29   ar
    29    29    30   ar
    30    11     2   am
    31    30    25   ar
    32     9     4    1
    33    20    12    1
    34    19    14    1
@<TRIPOS>MOLECULE
*****
 30 34 0 0 0
SMALL
GASTEIGER

@<TRIPOS>ATOM
      1 O         138.7997  139.5030  168.6688 O.2     1  UNL1       -0.2258
      2 C         139.3637  139.9241  167.3442 C.2     1  UNL1        0.4086
      3 O         138.9075  139.4433  165.9985 O.3     1  UNL1       -0.4398
      4 C         139.7449  140.1220  164.9554 C.3     1  UNL1        0.1561
      5 C         138.7176  139.1826  164.3968 C.3     1  UNL1        0.0425
      6 C         138.6016  138.9942  162.9132 C.3     1  UNL1        0.0160
      7 C         139.5130  139.7451  161.9883 C.3     1  UNL1        0.1122
      8 C         140.5404  140.6844  162.5469 C.3     1  UNL1        0.0160
      9 C         140.6563  140.8729  164.0304 C.3     1  UNL1        0.0425
     10 C         140.7187  141.0223  165.6564 C.3     1  UNL1        0.1414
     11 N         140.4831  140.9000  167.1327 N.am    1  UNL1       -0.2215
     12 C         139.3970  139.5566  160.5046 C.2     1  UNL1        0.3506
     13 N         139.9065  138.3824  159.7225 N.2     1  UNL1       -0.0351
     14 C         139.5755  138.6093  158.2772 C.2     1  UNL1        0.2317
     15 C         139.8321  137.7889  157.0480 C.2     1  UNL1        0.0537
     16 C         139.3746  138.2829  155.7076 C.2     1  UNL1        0.0714
     17 C         138.6605  139.5973  155.5964 C.2     1  UNL1       -0.0133
     18 C         138.4039  140.4177  156.8257 C.3     1  UNL1        0.1037
     19 C         138.8614  139.9238  158.1661 C.2     1  UNL1        0.2174
     20 N         138.7511  140.5092  159.5427 N.2     1  UNL1       -0.0389
     21 C         139.6311  137.4625  154.4783 C.3     1  UNL1        0.4184
     22 F         139.8877  136.6421  153.2490 F       1  UNL1       -0.1659
     23 F         138.2017  137.0078  154.4834 F       1  UNL1       -0.1659
     24 F         141.0606  137.9172  154.4732 F       1  UNL1       -0.1659
     25 C         141.2349  141.6261  168.2086 C.ar    1  UNL1        0.0571
     26 C         140.5881  142.7676  168.9357 C.ar    1  UNL1        0.0150
     27 C         141.3399  143.4937  170.0117 C.ar    1  UNL1        0.0013
     28 C         142.7384  143.0783  170.3604 C.ar    1  UNL1        0.0001
     29 C         143.3852  141.9368  169.6333 C.ar    1  UNL1        0.0013
     30 C         142.6333  141.2107  168.5574 C.ar    1  UNL1        0.0150
@<TRIPOS>BOND
     1     1     2    2
     2     2     3    1
     3     3     4    1
     4     4     5    1
     5     5     6    1
     6     6     7    1
     7     7    12    1
     8    12    13    2
     9    13    14    1
    10    14    15    2
    11    15    16    1
    12    16    21    1
    13    21    22    1
    14    21    23    1
    15    21    24    1
    16    16    17    2
    17    17    18    1
    18    18    19    1
    19    19    20    2
    20     7     8    1
    21     8     9    1
    22     4    10    1
    23    10    11    1
    24    11    25    1
    25    25    26   ar
    26    26    27   ar
    27    27    28   ar
    28    28    29   ar
    29    29    30   ar
    30    11     2   am
    31    30    25   ar
    32     9     4    1
    33    20    12    1
    34    19    14    1
@<TRIPOS>MOLECULE
*****
 30 34 0 0 0
SMALL
GASTEIGER

@<TRIPOS>ATOM
      1 O         144.5848  139.1788  155.9608 O.2     1  UNL1       -0.2258
      2 C         144.5290  140.1798  157.0765 C.2     1  UNL1        0.4086
      3 O         143.9622  139.9441  158.4452 O.3     1  UNL1       -0.4398
      4 C         144.1132  141.2110  159.2340 C.3     1  UNL1        0.1561
      5 C         143.4626  140.0932  159.9937 C.3     1  UNL1        0.0425
      6 C         143.0295  140.3043  161.4142 C.3     1  UNL1        0.0160
      7 C         143.2470  141.6332  162.0750 C.3     1  UNL1        0.1122
      8 C         143.8976  142.7510  161.3153 C.3     1  UNL1        0.0160
      9 C         144.3307  142.5399  159.8948 C.3     1  UNL1        0.0425
     10 C         144.7732  142.2298  158.3528 C.3     1  UNL1        0.1414
     11 N         145.0302  141.5925  157.0194 N.am    1  UNL1       -0.2215
     12 C         142.8139  141.8442  163.4956 C.2     1  UNL1        0.3506
     13 N         143.7209  141.9924  164.6811 N.2     1  UNL1       -0.0351
     14 C         142.8653  142.1839  165.8982 C.2     1  UNL1        0.2317
     15 C         143.2081  142.3816  167.3450 C.2     1  UNL1        0.0537
     16 C         142.1151  142.5494  168.3586 C.2     1  UNL1        0.0714
     17 C         140.6794  142.5196  167.9253 C.2     1  UNL1       -0.0133
     18 C         140.3366  142.3219  166.4784 C.3     1  UNL1        0.1037
     19 C         141.4295  142.1541  165.4649 C.2     1  UNL1        0.2174
     20 N         141.3978  141.9441  163.9800 N.2     1  UNL1       -0.0389
     21 C         142.4578  142.7471  169.8055 C.3     1  UNL1        0.4184
     22 F         142.8006  142.9448  171.2523 F       1  UNL1       -0.1659
     23 F         141.4006  143.8060  169.9112 F       1  UNL1       -0.1659
     24 F         143.5150  141.6883  169.6997 F       1  UNL1       -0.1659
     25 C         145.6752  142.2521  155.8367 C.ar    1  UNL1        0.0571
     26 C         144.8272  142.9241  154.7979 C.ar    1  UNL1        0.0150
     27 C         145.4722  143.5837  153.6151 C.ar    1  UNL1        0.0013
     28 C         146.9652  143.5712  153.4712 C.ar    1  UNL1        0.0001
     29 C         147.8133  142.8992  154.5100 C.ar    1  UNL1        0.0013
     30 C         147.1682  142.2396  155.6928 C.ar    1  UNL1        0.0150
@<TRIPOS>BOND
     1     1     2    2
     2     2     3    1
     3     3     4    1
     4     4     5    1
     5     5     6    1
     6     6     7    1
     7     7    12    1
     8    12    13    2
     9    13    14    1
    10    14    15    2
    11    15    16    1
    12    16    21    1
    13    21    22    1
    14    21    23    1
    15    21    24    1
    16    16    17    2
    17    17    18    1
    18    18    19    1
    19    19    20    2
    20     7     8    1
    21     8     9    1
    22     4    10    1
    23    10    11    1
    24    11    25    1
    25    25    26   ar
    26    26    27   ar
    27    27    28   ar
    28    28    29   ar
    29    29    30   ar
    30    11     2   am
    31    30    25   ar
    32     9     4    1
    33    20    12    1
    34    19    14    1
