@<TRIPOS>MOLECULE
*****
 31 33 0 0 0
SMALL
GASTEIGER

@<TRIPOS>ATOM
      1 N         143.3636  143.4017  164.2863 N.am    1  UNL1       -0.2591
      2 C         143.2567  144.3624  163.1393 C.2     1  UNL1        0.3219
      3 O         144.3979  144.8871  162.3194 O.2     1  UNL1       -0.2510
      4 N         141.8082  144.7063  162.9560 N.am    1  UNL1       -0.1885
      5 C         141.0198  143.9580  163.9899 C.3     1  UNL1        0.1388
      6 C         141.9811  143.1518  164.8120 C.3     1  UNL1        0.1208
      7 C         141.6229  142.2534  165.9585 C.ar    1  UNL1       -0.0023
      8 C         140.2992  141.5478  165.9731 C.ar    1  UNL1        0.0005
      9 C         139.9409  140.6495  167.1197 C.ar    1  UNL1        0.0366
     10 C         140.9062  140.4566  168.2515 C.ar    1  UNL1        0.1387
     11 C         142.2298  141.1621  168.2368 C.ar    1  UNL1        0.0366
     12 C         142.5880  142.0605  167.0903 C.ar    1  UNL1        0.0005
     13 O         140.5479  139.5582  169.3980 O.3     1  UNL1       -0.4714
     14 C         140.2563  140.1444  170.7475 C.3     1  UNL1        0.2525
     15 N         141.2466  145.6352  161.9208 N.3     1  UNL1       -0.1073
     16 H         142.0064  146.2538  161.6371 H       1  UNL1        0.1715
     17 S         140.6465  145.0813  160.6626 S.O2    1  UNL1        0.0573
     18 C         140.0463  144.5274  159.4044 C.3     1  UNL1        0.1974
     19 O         139.2841  145.1376  161.2877 O.2     1  UNL1       -0.1561
     20 O         142.0088  145.0250  160.0376 O.2     1  UNL1       -0.1561
     21 C         144.6306  142.7971  164.8148 C.3     1  UNL1        0.0957
     22 C         145.4309  141.8630  163.9563 C.3     1  UNL1        0.0262
     23 C         145.3585  140.3829  164.1887 C.3     1  UNL1        0.0281
     24 C         141.3574  138.3519  164.5293 C.ar    1  UNL1        0.1387
     25 C         142.3825  138.1753  165.6100 C.ar    1  UNL1        0.0366
     26 C         143.7162  138.8523  165.4964 C.ar    1  UNL1       -0.0012
     27 C         144.0248  139.7059  164.3023 C.ar    1  UNL1       -0.0219
     28 C         142.9996  139.8825  163.2216 C.ar    1  UNL1       -0.0012
     29 C         141.6659  139.2055  163.3352 C.ar    1  UNL1        0.0366
     30 C         139.0269  137.7899  163.5280 C.3     1  UNL1        0.2525
     31 O         140.0237  137.6748  164.6429 O.3     1  UNL1       -0.4714
@<TRIPOS>BOND
     1    30    31    1
     2    31    24    1
     3    24    25   ar
     4    25    26   ar
     5    26    27   ar
     6    27    23    1
     7    23    22    1
     8    22    21    1
     9    21     1    1
    10     1     2   am
    11     2     3    2
    12     2     4   am
    13     4    15    1
    14    15    17    1
    15    17    18    1
    16    17    19    2
    17    17    20    2
    18     4     5    1
    19     5     6    1
    20     6     7    1
    21     7     8   ar
    22     8     9   ar
    23     9    10   ar
    24    10    13    1
    25    13    14    1
    26    10    11   ar
    27    11    12   ar
    28    27    28   ar
    29    28    29   ar
    30    29    24   ar
    31     6     1    1
    32    12     7   ar
    33    15    16    1
@<TRIPOS>MOLECULE
*****
 31 33 0 0 0
SMALL
GASTEIGER

@<TRIPOS>ATOM
      1 N         142.8784  143.0479  163.9388 N.am    1  UNL1       -0.2591
      2 C         143.1500  144.0503  162.8565 C.2     1  UNL1        0.3219
      3 O         144.4986  144.5678  162.4521 O.2     1  UNL1       -0.2510
      4 N         141.8362  144.4445  162.2494 N.am    1  UNL1       -0.1885
      5 C         140.7526  143.6856  162.9566 C.3     1  UNL1        0.1388
      6 C         141.3967  142.8225  164.0007 C.3     1  UNL1        0.1208
      7 C         140.6843  141.8966  164.9414 C.ar    1  UNL1       -0.0023
      8 C         139.4693  141.1475  164.4798 C.ar    1  UNL1        0.0005
      9 C         138.7569  140.2216  165.4205 C.ar    1  UNL1        0.0366
     10 C         139.2592  140.0446  166.8228 C.ar    1  UNL1        0.1387
     11 C         140.4741  140.7937  167.2844 C.ar    1  UNL1        0.0366
     12 C         141.1865  141.7196  166.3436 C.ar    1  UNL1        0.0005
     13 O         138.5467  139.1187  167.7636 O.3     1  UNL1       -0.4714
     14 C         137.4058  138.2797  167.2696 C.3     1  UNL1        0.2525
     15 N         141.6403  145.4253  161.1316 N.3     1  UNL1       -0.1073
     16 H         142.5609  145.8018  160.9054 H       1  UNL1        0.1715
     17 S         141.0267  144.9761  159.8386 S.O2    1  UNL1        0.0573
     18 C         140.4131  144.5269  158.5456 C.3     1  UNL1        0.1974
     19 O         139.7199  145.5900  160.2455 O.2     1  UNL1       -0.1561
     20 O         142.3334  144.3623  159.4317 O.2     1  UNL1       -0.1561
     21 C         143.9078  142.3869  164.8068 C.3     1  UNL1        0.0957
     22 C         144.9300  141.4747  164.1960 C.3     1  UNL1        0.0262
     23 C         144.7880  139.9881  164.3366 C.3     1  UNL1        0.0281
     24 C         140.8677  138.0009  163.3707 C.ar    1  UNL1        0.1387
     25 C         141.4981  137.8013  164.7171 C.ar    1  UNL1        0.0366
     26 C         142.8048  138.4637  165.0390 C.ar    1  UNL1       -0.0012
     27 C         143.4812  139.3257  164.0146 C.ar    1  UNL1       -0.0219
     28 C         142.8508  139.5253  162.6683 C.ar    1  UNL1       -0.0012
     29 C         141.5441  138.8629  162.3463 C.ar    1  UNL1        0.0366
     30 C         138.4749  138.1151  162.3651 C.3     1  UNL1        0.2525
     31 O         139.5610  137.3386  163.0487 O.3     1  UNL1       -0.4714
@<TRIPOS>BOND
     1    30    31    1
     2    31    24    1
     3    24    25   ar
     4    25    26   ar
     5    26    27   ar
     6    27    23    1
     7    23    22    1
     8    22    21    1
     9    21     1    1
    10     1     2   am
    11     2     3    2
    12     2     4   am
    13     4    15    1
    14    15    17    1
    15    17    18    1
    16    17    19    2
    17    17    20    2
    18     4     5    1
    19     5     6    1
    20     6     7    1
    21     7     8   ar
    22     8     9   ar
    23     9    10   ar
    24    10    13    1
    25    13    14    1
    26    10    11   ar
    27    11    12   ar
    28    27    28   ar
    29    28    29   ar
    30    29    24   ar
    31     6     1    1
    32    12     7   ar
    33    15    16    1
@<TRIPOS>MOLECULE
*****
 31 33 0 0 0
SMALL
GASTEIGER

@<TRIPOS>ATOM
      1 N         138.9683  139.5673  165.5687 N.am    1  UNL1       -0.2591
      2 C         138.5079  139.1037  166.9189 C.2     1  UNL1        0.3219
      3 O         137.5881  137.9499  167.1886 O.2     1  UNL1       -0.2510
      4 N         139.1287  139.9964  167.9522 N.am    1  UNL1       -0.1885
      5 C         139.9729  141.0118  167.2404 C.3     1  UNL1        0.1388
      6 C         139.8737  140.7466  165.7674 C.3     1  UNL1        0.1208
      7 C         140.5595  141.5242  164.6835 C.ar    1  UNL1       -0.0023
      8 C         140.0115  141.5078  163.2872 C.ar    1  UNL1        0.0005
      9 C         140.6973  142.2854  162.2032 C.ar    1  UNL1        0.0366
     10 C         141.9312  143.0793  162.5154 C.ar    1  UNL1        0.1387
     11 C         142.4792  143.0956  163.9116 C.ar    1  UNL1        0.0366
     12 C         141.7933  142.3180  164.9956 C.ar    1  UNL1        0.0005
     13 O         142.6170  143.8569  161.4315 O.3     1  UNL1       -0.4714
     14 C         141.9959  143.9529  160.0696 C.3     1  UNL1        0.2525
     15 N         138.9388  139.8922  169.4364 N.3     1  UNL1       -0.1073
     16 H         138.8961  138.8976  169.6586 H       1  UNL1        0.1715
     17 S         139.9465  140.5007  170.3661 S.O2    1  UNL1        0.0573
     18 C         140.9542  141.1093  171.2957 C.3     1  UNL1        0.1974
     19 O         140.8430  139.3140  170.1711 O.2     1  UNL1       -0.1561
     20 O         139.0500  141.6873  170.5611 O.2     1  UNL1       -0.1561
     21 C         138.5897  138.9585  164.2511 C.3     1  UNL1        0.0957
     22 C         139.3058  137.7370  163.7560 C.3     1  UNL1        0.0262
     23 C         140.5469  137.2617  164.4514 C.3     1  UNL1        0.0281
     24 C         144.3512  139.6456  164.1441 C.ar    1  UNL1        0.1387
     25 C         143.8961  139.1279  165.4763 C.ar    1  UNL1        0.0366
     26 C         142.6280  138.3332  165.5787 C.ar    1  UNL1       -0.0012
     27 C         141.8150  138.0563  164.3490 C.ar    1  UNL1       -0.0219
     28 C         142.2701  138.5741  163.0168 C.ar    1  UNL1       -0.0012
     29 C         143.5382  139.3688  162.9144 C.ar    1  UNL1        0.0366
     30 C         145.6424  141.7179  163.2561 C.3     1  UNL1        0.2525
     31 O         145.6193  140.4403  164.0417 O.3     1  UNL1       -0.4714
@<TRIPOS>BOND
     1    30    31    1
     2    31    24    1
     3    24    25   ar
     4    25    26   ar
     5    26    27   ar
     6    27    23    1
     7    23    22    1
     8    22    21    1
     9    21     1    1
    10     1     2   am
    11     2     3    2
    12     2     4   am
    13     4    15    1
    14    15    17    1
    15    17    18    1
    16    17    19    2
    17    17    20    2
    18     4     5    1
    19     5     6    1
    20     6     7    1
    21     7     8   ar
    22     8     9   ar
    23     9    10   ar
    24    10    13    1
    25    13    14    1
    26    10    11   ar
    27    11    12   ar
    28    27    28   ar
    29    28    29   ar
    30    29    24   ar
    31     6     1    1
    32    12     7   ar
    33    15    16    1
@<TRIPOS>MOLECULE
*****
 31 33 0 0 0
SMALL
GASTEIGER

@<TRIPOS>ATOM
      1 N         139.1030  139.9945  165.4029 N.am    1  UNL1       -0.2591
      2 C         138.5407  139.4889  166.6984 C.2     1  UNL1        0.3219
      3 O         137.3581  138.5788  166.8507 O.2     1  UNL1       -0.2510
      4 N         139.3685  140.0533  167.8147 N.am    1  UNL1       -0.1885
      5 C         140.4425  140.9076  167.2091 C.3     1  UNL1        0.1388
      6 C         140.2784  140.8713  165.7186 C.3     1  UNL1        0.1208
      7 C         141.1387  141.5862  164.7192 C.ar    1  UNL1       -0.0023
      8 C         141.6894  140.8448  163.5372 C.ar    1  UNL1        0.0005
      9 C         142.5496  141.5597  162.5378 C.ar    1  UNL1        0.0366
     10 C         142.8593  143.0160  162.7204 C.ar    1  UNL1        0.1387
     11 C         142.3087  143.7574  163.9024 C.ar    1  UNL1        0.0366
     12 C         141.4484  143.0424  164.9017 C.ar    1  UNL1        0.0005
     13 O         143.7196  143.7309  161.7210 O.3     1  UNL1       -0.4714
     14 C         144.4072  142.9585  160.6346 C.3     1  UNL1        0.2525
     15 N         139.1591  139.8066  169.2794 N.3     1  UNL1       -0.1073
     16 H         139.2172  138.7979  169.4193 H       1  UNL1        0.1715
     17 S         140.0767  140.4368  170.2848 S.O2    1  UNL1        0.0573
     18 C         140.9943  141.0671  171.2902 C.3     1  UNL1        0.1974
     19 O         139.1430  141.6046  170.4050 O.2     1  UNL1       -0.1561
     20 O         141.0105  139.2692  170.1645 O.2     1  UNL1       -0.1561
     21 C         138.5815  139.6787  164.0323 C.3     1  UNL1        0.0957
     22 C         137.5461  140.5621  163.4019 C.3     1  UNL1        0.0262
     23 C         137.5593  142.0388  163.6650 C.3     1  UNL1        0.0281
     24 C         139.9797  144.7714  161.0337 C.ar    1  UNL1        0.1387
     25 C         139.3455  145.3029  162.2848 C.ar    1  UNL1        0.0366
     26 C         138.5387  144.3920  163.1619 C.ar    1  UNL1       -0.0012
     27 C         138.3661  142.9497  162.7879 C.ar    1  UNL1       -0.0219
     28 C         139.0004  142.4182  161.5368 C.ar    1  UNL1       -0.0012
     29 C         139.8072  143.3291  160.6597 C.ar    1  UNL1        0.0366
     30 C         141.4881  145.1338  158.9496 C.3     1  UNL1        0.2525
     31 O         140.7865  145.6823  160.1566 O.3     1  UNL1       -0.4714
@<TRIPOS>BOND
     1    30    31    1
     2    31    24    1
     3    24    25   ar
     4    25    26   ar
     5    26    27   ar
     6    27    23    1
     7    23    22    1
     8    22    21    1
     9    21     1    1
    10     1     2   am
    11     2     3    2
    12     2     4   am
    13     4    15    1
    14    15    17    1
    15    17    18    1
    16    17    19    2
    17    17    20    2
    18     4     5    1
    19     5     6    1
    20     6     7    1
    21     7     8   ar
    22     8     9   ar
    23     9    10   ar
    24    10    13    1
    25    13    14    1
    26    10    11   ar
    27    11    12   ar
    28    27    28   ar
    29    28    29   ar
    30    29    24   ar
    31     6     1    1
    32    12     7   ar
    33    15    16    1
@<TRIPOS>MOLECULE
*****
 31 33 0 0 0
SMALL
GASTEIGER

@<TRIPOS>ATOM
      1 N         141.5028  138.5350  164.5191 N.am    1  UNL1       -0.2591
      2 C         141.9492  138.0757  163.1627 C.2     1  UNL1        0.3219
      3 O         141.1420  137.2572  162.1991 O.2     1  UNL1       -0.2510
      4 N         143.3446  138.5786  162.9390 N.am    1  UNL1       -0.1885
      5 C         143.7606  139.3487  164.1572 C.3     1  UNL1        0.1388
      6 C         142.6223  139.3218  165.1337 C.3     1  UNL1        0.1208
      7 C         142.6063  139.9681  166.4872 C.ar    1  UNL1       -0.0023
      8 C         142.6532  139.1203  167.7237 C.ar    1  UNL1        0.0005
      9 C         142.6373  139.7666  169.0772 C.ar    1  UNL1        0.0366
     10 C         142.5744  141.2608  169.1943 C.ar    1  UNL1        0.1387
     11 C         142.5275  142.1085  167.9577 C.ar    1  UNL1        0.0366
     12 C         142.5434  141.4622  166.6042 C.ar    1  UNL1        0.0005
     13 O         142.5584  141.9071  170.5478 O.3     1  UNL1       -0.4714
     14 C         142.9966  143.3332  170.7031 C.3     1  UNL1        0.2525
     15 N         144.1777  138.3513  161.7125 N.3     1  UNL1       -0.1073
     16 H         144.1208  137.3557  161.4983 H       1  UNL1        0.1715
     17 S         143.8608  139.0860  160.4438 S.O2    1  UNL1        0.0573
     18 C         143.5439  139.8208  159.1750 C.3     1  UNL1        0.1974
     19 O         143.4230  137.7998  159.8082 O.2     1  UNL1       -0.1561
     20 O         144.2986  140.3722  161.0793 O.2     1  UNL1       -0.1561
     21 C         140.1707  138.2564  165.1500 C.3     1  UNL1        0.0957
     22 C         139.0210  139.1916  164.9186 C.3     1  UNL1        0.0262
     23 C         139.0012  140.5352  165.5851 C.3     1  UNL1        0.0281
     24 C         138.6098  144.2708  163.1068 C.ar    1  UNL1        0.1387
     25 C         139.3411  144.3124  164.4159 C.ar    1  UNL1        0.0366
     26 C         139.4715  143.0672  165.2419 C.ar    1  UNL1       -0.0012
     27 C         138.8707  141.7804  164.7590 C.ar    1  UNL1       -0.0219
     28 C         138.1395  141.7388  163.4500 C.ar    1  UNL1       -0.0012
     29 C         138.0091  142.9841  162.6239 C.ar    1  UNL1        0.0366
     30 C         139.7063  146.1933  161.7460 C.3     1  UNL1        0.2525
     31 O         138.4794  145.5160  162.2808 O.3     1  UNL1       -0.4714
@<TRIPOS>BOND
     1    30    31    1
     2    31    24    1
     3    24    25   ar
     4    25    26   ar
     5    26    27   ar
     6    27    23    1
     7    23    22    1
     8    22    21    1
     9    21     1    1
    10     1     2   am
    11     2     3    2
    12     2     4   am
    13     4    15    1
    14    15    17    1
    15    17    18    1
    16    17    19    2
    17    17    20    2
    18     4     5    1
    19     5     6    1
    20     6     7    1
    21     7     8   ar
    22     8     9   ar
    23     9    10   ar
    24    10    13    1
    25    13    14    1
    26    10    11   ar
    27    11    12   ar
    28    27    28   ar
    29    28    29   ar
    30    29    24   ar
    31     6     1    1
    32    12     7   ar
    33    15    16    1
@<TRIPOS>MOLECULE
*****
 31 33 0 0 0
SMALL
GASTEIGER

@<TRIPOS>ATOM
      1 N         143.7730  139.1750  164.0000 N.am    1  UNL1       -0.2591
      2 C         143.2549  138.4426  162.7978 C.2     1  UNL1        0.3219
      3 O         144.0576  138.0429  161.5952 O.2     1  UNL1       -0.2510
      4 N         141.7933  138.1800  163.0092 N.am    1  UNL1       -0.1885
      5 C         141.4081  138.7501  164.3421 C.3     1  UNL1        0.1388
      6 C         142.6316  139.3650  164.9544 C.3     1  UNL1        0.1208
      7 C         142.7013  140.0497  166.2872 C.ar    1  UNL1       -0.0023
      8 C         142.6741  139.2392  167.5491 C.ar    1  UNL1        0.0005
      9 C         142.7438  139.9239  168.8818 C.ar    1  UNL1        0.0366
     10 C         142.8409  141.4191  168.9528 C.ar    1  UNL1        0.1387
     11 C         142.8682  142.2296  167.6909 C.ar    1  UNL1        0.0366
     12 C         142.7984  141.5449  166.3581 C.ar    1  UNL1        0.0005
     13 O         142.9107  142.1039  170.2856 O.3     1  UNL1       -0.4714
     14 C         141.7350  142.0561  171.2158 C.3     1  UNL1        0.2525
     15 N         140.8777  137.4717  162.0553 N.3     1  UNL1       -0.1073
     16 H         140.4387  136.7131  162.5769 H       1  UNL1        0.1715
     17 S         139.7734  138.2259  161.3759 S.O2    1  UNL1        0.0573
     18 C         138.6690  138.9802  160.6965 C.3     1  UNL1        0.1974
     19 O         140.7584  138.7797  160.3894 O.2     1  UNL1       -0.1561
     20 O         138.7884  137.6722  162.3623 O.2     1  UNL1       -0.1561
     21 C         145.1847  139.6363  164.2107 C.3     1  UNL1        0.0957
     22 C         145.5609  141.0582  163.9163 C.3     1  UNL1        0.0262
     23 C         144.9121  141.7849  162.7758 C.3     1  UNL1        0.0281
     24 C         141.2995  144.3641  163.5151 C.ar    1  UNL1        0.1387
     25 C         142.6639  144.8578  163.8952 C.ar    1  UNL1        0.0366
     26 C         143.8682  143.9980  163.6487 C.ar    1  UNL1       -0.0012
     27 C         143.7079  142.6446  163.0222 C.ar    1  UNL1       -0.0219
     28 C         142.3435  142.1510  162.6421 C.ar    1  UNL1       -0.0012
     29 C         141.1392  143.0107  162.8885 C.ar    1  UNL1        0.0366
     30 C         138.9814  144.7226  164.6320 C.3     1  UNL1        0.2525
     31 O         140.0953  145.2239  163.7615 O.3     1  UNL1       -0.4714
@<TRIPOS>BOND
     1    30    31    1
     2    31    24    1
     3    24    25   ar
     4    25    26   ar
     5    26    27   ar
     6    27    23    1
     7    23    22    1
     8    22    21    1
     9    21     1    1
    10     1     2   am
    11     2     3    2
    12     2     4   am
    13     4    15    1
    14    15    17    1
    15    17    18    1
    16    17    19    2
    17    17    20    2
    18     4     5    1
    19     5     6    1
    20     6     7    1
    21     7     8   ar
    22     8     9   ar
    23     9    10   ar
    24    10    13    1
    25    13    14    1
    26    10    11   ar
    27    11    12   ar
    28    27    28   ar
    29    28    29   ar
    30    29    24   ar
    31     6     1    1
    32    12     7   ar
    33    15    16    1
@<TRIPOS>MOLECULE
*****
 31 33 0 0 0
SMALL
GASTEIGER

@<TRIPOS>ATOM
      1 N         140.1723  144.6236  162.9365 N.am    1  UNL1       -0.2591
      2 C         140.1927  145.4867  161.7098 C.2     1  UNL1        0.3219
      3 O         139.2163  146.5774  161.3828 O.2     1  UNL1       -0.2510
      4 N         141.3611  145.0677  160.8676 N.am    1  UNL1       -0.1885
      5 C         142.0627  143.9455  161.5737 C.3     1  UNL1        0.1388
      6 C         141.3280  143.6711  162.8523 C.3     1  UNL1        0.1208
      7 C         141.6861  142.6274  163.8684 C.ar    1  UNL1       -0.0023
      8 C         142.1809  141.2838  163.4210 C.ar    1  UNL1        0.0005
      9 C         142.5390  140.2401  164.4371 C.ar    1  UNL1        0.0366
     10 C         142.4024  140.5399  165.9005 C.ar    1  UNL1        0.1387
     11 C         141.9077  141.8834  166.3478 C.ar    1  UNL1        0.0366
     12 C         141.5495  142.9271  165.3317 C.ar    1  UNL1        0.0005
     13 O         142.7606  139.4962  166.9165 O.3     1  UNL1       -0.4714
     14 C         143.6248  138.3343  166.5256 C.3     1  UNL1        0.2525
     15 N         141.7581  145.6657  159.5505 N.3     1  UNL1       -0.1073
     16 H         142.7634  145.8328  159.5940 H       1  UNL1        0.1715
     17 S         141.4985  144.9159  158.2776 S.O2    1  UNL1        0.0573
     18 C         141.2389  144.1660  157.0046 C.3     1  UNL1        0.1974
     19 O         142.9106  144.4100  158.2876 O.2     1  UNL1       -0.1561
     20 O         140.0865  145.4217  158.2676 O.2     1  UNL1       -0.1561
     21 C         139.1717  144.6997  164.0515 C.3     1  UNL1        0.0957
     22 C         137.8207  144.0681  163.8912 C.3     1  UNL1        0.0262
     23 C         137.6602  142.8478  163.0337 C.3     1  UNL1        0.0281
     24 C         139.1754  138.8655  164.4814 C.ar    1  UNL1        0.1387
     25 C         139.0995  139.1495  163.0105 C.ar    1  UNL1        0.0366
     26 C         138.5944  140.4769  162.5279 C.ar    1  UNL1       -0.0012
     27 C         138.1653  141.5204  163.5163 C.ar    1  UNL1       -0.0219
     28 C         138.2411  141.2364  164.9872 C.ar    1  UNL1       -0.0012
     29 C         138.7462  139.9090  165.4697 C.ar    1  UNL1        0.0366
     30 C         140.9450  136.9653  164.3959 C.3     1  UNL1        0.2525
     31 O         139.6804  137.5381  164.9639 O.3     1  UNL1       -0.4714
@<TRIPOS>BOND
     1    30    31    1
     2    31    24    1
     3    24    25   ar
     4    25    26   ar
     5    26    27   ar
     6    27    23    1
     7    23    22    1
     8    22    21    1
     9    21     1    1
    10     1     2   am
    11     2     3    2
    12     2     4   am
    13     4    15    1
    14    15    17    1
    15    17    18    1
    16    17    19    2
    17    17    20    2
    18     4     5    1
    19     5     6    1
    20     6     7    1
    21     7     8   ar
    22     8     9   ar
    23     9    10   ar
    24    10    13    1
    25    13    14    1
    26    10    11   ar
    27    11    12   ar
    28    27    28   ar
    29    28    29   ar
    30    29    24   ar
    31     6     1    1
    32    12     7   ar
    33    15    16    1
@<TRIPOS>MOLECULE
*****
 31 33 0 0 0
SMALL
GASTEIGER

@<TRIPOS>ATOM
      1 N         142.6955  142.2560  162.9500 N.am    1  UNL1       -0.2591
      2 C         143.0006  143.5003  162.1699 C.2     1  UNL1        0.3219
      3 O         144.3681  144.0185  161.8360 O.2     1  UNL1       -0.2510
      4 N         141.6982  144.1355  161.7822 N.am    1  UNL1       -0.1885
      5 C         140.5881  143.2837  162.3228 C.3     1  UNL1        0.1388
      6 C         141.2045  142.1221  163.0445 C.3     1  UNL1        0.1208
      7 C         140.4605  141.0202  163.7389 C.ar    1  UNL1       -0.0023
      8 C         141.0445  139.6396  163.7939 C.ar    1  UNL1        0.0005
      9 C         140.3005  138.5377  164.4882 C.ar    1  UNL1        0.0366
     10 C         138.9724  138.8162  165.1275 C.ar    1  UNL1        0.1387
     11 C         138.3884  140.1967  165.0725 C.ar    1  UNL1        0.0366
     12 C         139.1324  141.2987  164.3781 C.ar    1  UNL1        0.0005
     13 O         138.2283  137.7143  165.8218 O.3     1  UNL1       -0.4714
     14 C         137.4063  138.0158  167.0397 C.3     1  UNL1        0.2525
     15 N         141.5346  145.4003  160.9926 N.3     1  UNL1       -0.1073
     16 H         142.4622  145.8155  160.9062 H       1  UNL1        0.1715
     17 S         140.9514  145.3521  159.6115 S.O2    1  UNL1        0.0573
     18 C         140.3681  145.3039  158.2303 C.3     1  UNL1        0.1974
     19 O         139.6527  145.8839  160.1413 O.2     1  UNL1       -0.1561
     20 O         142.2499  144.8203  159.0817 O.2     1  UNL1       -0.1561
     21 C         143.7043  141.3115  163.5333 C.3     1  UNL1        0.0957
     22 C         144.4859  141.7071  164.7509 C.3     1  UNL1        0.0262
     23 C         143.8094  142.4406  165.8708 C.3     1  UNL1        0.0281
     24 C         140.4527  140.4821  168.1395 C.ar    1  UNL1        0.1387
     25 C         141.6814  139.6956  167.7909 C.ar    1  UNL1        0.0366
     26 C         142.8003  140.3484  167.0347 C.ar    1  UNL1       -0.0012
     27 C         142.6905  141.7877  166.6270 C.ar    1  UNL1       -0.0219
     28 C         141.4617  142.5742  166.9756 C.ar    1  UNL1       -0.0012
     29 C         140.3428  141.9214  167.7319 C.ar    1  UNL1        0.0366
     30 C         138.8997  140.3840  170.2200 C.3     1  UNL1        0.2525
     31 O         139.3338  139.8292  168.8957 O.3     1  UNL1       -0.4714
@<TRIPOS>BOND
     1    30    31    1
     2    31    24    1
     3    24    25   ar
     4    25    26   ar
     5    26    27   ar
     6    27    23    1
     7    23    22    1
     8    22    21    1
     9    21     1    1
    10     1     2   am
    11     2     3    2
    12     2     4   am
    13     4    15    1
    14    15    17    1
    15    17    18    1
    16    17    19    2
    17    17    20    2
    18     4     5    1
    19     5     6    1
    20     6     7    1
    21     7     8   ar
    22     8     9   ar
    23     9    10   ar
    24    10    13    1
    25    13    14    1
    26    10    11   ar
    27    11    12   ar
    28    27    28   ar
    29    28    29   ar
    30    29    24   ar
    31     6     1    1
    32    12     7   ar
    33    15    16    1
@<TRIPOS>MOLECULE
*****
 31 33 0 0 0
SMALL
GASTEIGER

@<TRIPOS>ATOM
      1 N         139.2470  143.1889  164.1807 N.am    1  UNL1       -0.2591
      2 C         139.1412  144.2108  163.0877 C.2     1  UNL1        0.3219
      3 O         137.8743  144.6668  162.4266 O.2     1  UNL1       -0.2510
      4 N         140.5248  144.6967  162.7718 N.am    1  UNL1       -0.1885
      5 C         141.4856  143.9750  163.6696 C.3     1  UNL1        0.1388
      6 C         140.6959  143.0432  164.5403 C.3     1  UNL1        0.1208
      7 C         141.2568  142.1267  165.5869 C.ar    1  UNL1       -0.0023
      8 C         142.4146  141.2316  165.2575 C.ar    1  UNL1        0.0005
      9 C         142.9754  140.3151  166.3041 C.ar    1  UNL1        0.0366
     10 C         142.3785  140.2934  167.6801 C.ar    1  UNL1        0.1387
     11 C         141.2207  141.1884  168.0094 C.ar    1  UNL1        0.0366
     12 C         140.6599  142.1050  166.9628 C.ar    1  UNL1        0.0005
     13 O         142.9393  139.3769  168.7266 O.3     1  UNL1       -0.4714
     14 C         142.2203  139.1989  170.0309 C.3     1  UNL1        0.2525
     15 N         140.8843  145.7238  161.7395 N.3     1  UNL1       -0.1073
     16 H         141.8260  146.0470  161.9612 H       1  UNL1        0.1715
     17 S         140.8836  145.3573  160.2849 S.O2    1  UNL1        0.0573
     18 C         140.8829  144.9909  158.8303 C.3     1  UNL1        0.1974
     19 O         139.5777  146.0731  160.1052 O.2     1  UNL1       -0.1561
     20 O         142.1894  144.6416  160.4646 O.2     1  UNL1       -0.1561
     21 C         138.1044  142.4436  164.8045 C.3     1  UNL1        0.0957
     22 C         137.6983  141.1045  164.2642 C.3     1  UNL1        0.0262
     23 C         138.3507  139.8574  164.7827 C.3     1  UNL1        0.0281
     24 C         142.0164  138.2227  162.7478 C.ar    1  UNL1        0.1387
     25 C         141.2492  139.3484  162.1201 C.ar    1  UNL1        0.0366
     26 C         140.0273  139.8933  162.7984 C.ar    1  UNL1       -0.0012
     27 C         139.5726  139.3125  164.1044 C.ar    1  UNL1       -0.0219
     28 C         140.3397  138.1867  164.7321 C.ar    1  UNL1       -0.0012
     29 C         141.5616  137.6418  164.0538 C.ar    1  UNL1        0.0366
     30 C         143.5005  137.9964  160.6274 C.3     1  UNL1        0.2525
     31 O         143.2383  137.6778  162.0695 O.3     1  UNL1       -0.4714
@<TRIPOS>BOND
     1    30    31    1
     2    31    24    1
     3    24    25   ar
     4    25    26   ar
     5    26    27   ar
     6    27    23    1
     7    23    22    1
     8    22    21    1
     9    21     1    1
    10     1     2   am
    11     2     3    2
    12     2     4   am
    13     4    15    1
    14    15    17    1
    15    17    18    1
    16    17    19    2
    17    17    20    2
    18     4     5    1
    19     5     6    1
    20     6     7    1
    21     7     8   ar
    22     8     9   ar
    23     9    10   ar
    24    10    13    1
    25    13    14    1
    26    10    11   ar
    27    11    12   ar
    28    27    28   ar
    29    28    29   ar
    30    29    24   ar
    31     6     1    1
    32    12     7   ar
    33    15    16    1
