@<TRIPOS>MOLECULE
*****
 34 37 0 0 0
SMALL
GASTEIGER

@<TRIPOS>ATOM
      1 N         138.9065  140.1083  165.7937 N.3     1  UNL1       -0.2691
      2 C         140.1845  140.6633  166.3492 C.3     1  UNL1        0.0724
      3 C         140.6501  142.0289  165.9389 C.3     1  UNL1        0.0188
      4 C         139.8376  142.8395  164.9732 C.3     1  UNL1        0.0188
      5 C         138.5595  142.2846  164.4176 C.3     1  UNL1        0.0188
      6 C         138.0939  140.9190  164.8279 C.3     1  UNL1        0.0724
      7 C         138.4409  138.7427  166.2039 C.3     1  UNL1        0.0987
      8 O         136.5922  137.5920  167.6211 O.co2   1  UNL1       -0.5478
      9 C         137.7399  138.5521  167.5163 C.2     1  UNL1        0.0652
     10 O         138.1867  139.3216  168.7239 O.co2   1  UNL1       -0.5478
     11 C         138.6762  137.5676  165.3018 C.3     1  UNL1        0.0480
     12 C         139.5548  137.7129  164.0947 C.ar    1  UNL1       -0.0203
     13 C         138.9426  137.9401  162.7443 C.ar    1  UNL1       -0.0019
     14 C         139.8212  138.0853  161.5373 C.ar    1  UNL1        0.0293
     15 C         141.3120  138.0034  161.6807 C.ar    1  UNL1        0.1401
     16 F         142.1907  138.1487  160.4736 F       1  UNL1       -0.2042
     17 C         141.9243  137.7762  163.0310 C.ar    1  UNL1        0.0293
     18 C         141.0457  137.6309  164.2380 C.ar    1  UNL1       -0.0019
     19 C         140.3032  144.2052  164.5629 C.3     1  UNL1        0.0721
     20 N         140.6377  144.4837  163.1275 N.3     1  UNL1       -0.2724
     21 C         139.8457  145.4973  162.3559 C.3     1  UNL1        0.0758
     22 C         140.1802  145.7759  160.9204 C.3     1  UNL1        0.0609
     23 C         141.3067  145.0409  160.2566 C.3     1  UNL1        0.1687
     24 C         142.0988  144.0273  161.0282 C.3     1  UNL1        0.0609
     25 C         141.7643  143.7487  162.4637 C.3     1  UNL1        0.0758
     26 O         141.6413  145.3194  158.8212 O.3     1  UNL1       -0.4790
     27 C         140.5815  145.1968  157.7667 C.ar    1  UNL1        0.1393
     28 C         139.8930  143.8828  157.5445 C.ar    1  UNL1        0.0378
     29 C         138.8333  143.7602  156.4900 C.ar    1  UNL1        0.0154
     30 C         138.4620  144.9516  155.6577 C.ar    1  UNL1        0.0684
     31 CL        137.4023  144.8290  154.6032 Cl      1  UNL1       -0.0814
     32 C         139.1505  146.2657  155.8799 C.ar    1  UNL1        0.0712
     33 CL        138.7792  147.4571  155.0477 Cl      1  UNL1       -0.0813
     34 C         140.2102  146.3882  156.9344 C.ar    1  UNL1        0.0491
@<TRIPOS>UNITY_ATOM_ATTR
8 1
charge -1
@<TRIPOS>BOND
     1     8     9   ar
     2     9    10   ar
     3     9     7    1
     4     7    11    1
     5    11    12    1
     6    12    13   ar
     7    13    14   ar
     8    14    15   ar
     9    15    16    1
    10    15    17   ar
    11    17    18   ar
    12     7     1    1
    13     1     2    1
    14     2     3    1
    15     3     4    1
    16     4    19    1
    17    19    20    1
    18    20    21    1
    19    21    22    1
    20    22    23    1
    21    23    26    1
    22    26    27    1
    23    27    28   ar
    24    28    29   ar
    25    29    30   ar
    26    30    31    1
    27    30    32   ar
    28    32    33    1
    29    32    34   ar
    30    23    24    1
    31    24    25    1
    32     4     5    1
    33     5     6    1
    34    18    12   ar
    35     6     1    1
    36    25    20    1
    37    34    27   ar
@<TRIPOS>MOLECULE
*****
 34 37 0 0 0
SMALL
GASTEIGER

@<TRIPOS>ATOM
      1 N         140.6399  140.5700  167.3725 N.3     1  UNL1       -0.2691
      2 C         141.8005  139.7180  166.9517 C.3     1  UNL1        0.0724
      3 C         142.9414  140.3270  166.1918 C.3     1  UNL1        0.0188
      4 C         142.9217  141.7880  165.8526 C.3     1  UNL1        0.0188
      5 C         141.7611  142.6401  166.2734 C.3     1  UNL1        0.0188
      6 C         140.6202  142.0311  167.0333 C.3     1  UNL1        0.0724
      7 C         139.4990  139.9611  168.1324 C.3     1  UNL1        0.0987
      8 O         140.5030  139.3690  170.4544 O.co2   1  UNL1       -0.5478
      9 C         139.4576  140.0585  169.6287 C.2     1  UNL1        0.0652
     10 O         138.3708  140.8454  170.2992 O.co2   1  UNL1       -0.5478
     11 C         138.3996  139.2546  167.3961 C.3     1  UNL1        0.0480
     12 C         138.4634  139.1183  165.9036 C.ar    1  UNL1       -0.0203
     13 C         138.0827  140.2750  165.0279 C.ar    1  UNL1       -0.0019
     14 C         138.1466  140.1387  163.5355 C.ar    1  UNL1        0.0293
     15 C         138.5911  138.8456  162.9188 C.ar    1  UNL1        0.1401
     16 F         138.6550  138.7092  161.4263 F       1  UNL1       -0.2042
     17 C         138.9718  137.6888  163.7946 C.ar    1  UNL1        0.0293
     18 C         138.9079  137.8252  165.2870 C.ar    1  UNL1       -0.0019
     19 C         144.0626  142.3970  165.0927 C.3     1  UNL1        0.0721
     20 N         143.9331  142.6488  163.6197 N.3     1  UNL1       -0.2724
     21 C         144.7832  141.8823  162.6501 C.3     1  UNL1        0.0758
     22 C         144.6537  142.1341  161.1772 C.3     1  UNL1        0.0609
     23 C         143.6742  143.1525  160.6736 C.3     1  UNL1        0.1687
     24 C         142.8241  143.9190  161.6430 C.3     1  UNL1        0.0609
     25 C         142.9536  143.6672  163.1161 C.3     1  UNL1        0.0758
     26 O         143.5447  143.4043  159.2006 O.3     1  UNL1       -0.4790
     27 C         143.9629  142.3493  158.2197 C.ar    1  UNL1        0.1393
     28 C         145.2958  142.4448  157.5384 C.ar    1  UNL1        0.0378
     29 C         145.7141  141.3899  156.5575 C.ar    1  UNL1        0.0154
     30 C         144.7994  140.2393  156.2579 C.ar    1  UNL1        0.0684
     31 CL        145.2176  139.1844  155.2771 Cl      1  UNL1       -0.0814
     32 C         143.4665  140.1438  156.9393 C.ar    1  UNL1        0.0712
     33 CL        142.5518  138.9933  156.6398 Cl      1  UNL1       -0.0813
     34 C         143.0483  141.1988  157.9202 C.ar    1  UNL1        0.0491
@<TRIPOS>UNITY_ATOM_ATTR
8 1
charge -1
@<TRIPOS>BOND
     1     8     9   ar
     2     9    10   ar
     3     9     7    1
     4     7    11    1
     5    11    12    1
     6    12    13   ar
     7    13    14   ar
     8    14    15   ar
     9    15    16    1
    10    15    17   ar
    11    17    18   ar
    12     7     1    1
    13     1     2    1
    14     2     3    1
    15     3     4    1
    16     4    19    1
    17    19    20    1
    18    20    21    1
    19    21    22    1
    20    22    23    1
    21    23    26    1
    22    26    27    1
    23    27    28   ar
    24    28    29   ar
    25    29    30   ar
    26    30    31    1
    27    30    32   ar
    28    32    33    1
    29    32    34   ar
    30    23    24    1
    31    24    25    1
    32     4     5    1
    33     5     6    1
    34    18    12   ar
    35     6     1    1
    36    25    20    1
    37    34    27   ar
@<TRIPOS>MOLECULE
*****
 34 37 0 0 0
SMALL
GASTEIGER

@<TRIPOS>ATOM
      1 N         141.4773  140.1476  166.7376 N.3     1  UNL1       -0.2691
      2 C         141.6839  141.4867  166.0941 C.3     1  UNL1        0.0724
      3 C         142.8119  141.6875  165.1259 C.3     1  UNL1        0.0188
      4 C         143.7333  140.5493  164.8014 C.3     1  UNL1        0.0188
      5 C         143.5267  139.2102  165.4449 C.3     1  UNL1        0.0188
      6 C         142.3987  139.0093  166.4131 C.3     1  UNL1        0.0724
      7 C         140.3493  139.9468  167.7058 C.3     1  UNL1        0.0987
      8 O         141.8664  140.7569  169.6531 O.co2   1  UNL1       -0.5478
      9 C         140.5681  140.1804  169.1713 C.2     1  UNL1        0.0652
     10 O         139.4888  139.8375  170.1548 O.co2   1  UNL1       -0.5478
     11 C         139.0025  139.5124  167.2085 C.3     1  UNL1        0.0480
     12 C         138.7745  139.3109  165.7396 C.ar    1  UNL1       -0.0203
     13 C         138.2610  140.4415  164.8983 C.ar    1  UNL1       -0.0019
     14 C         138.0331  140.2400  163.4295 C.ar    1  UNL1        0.0293
     15 C         138.3186  138.9078  162.8020 C.ar    1  UNL1        0.1401
     16 F         138.0906  138.7063  161.3332 F       1  UNL1       -0.2042
     17 C         138.8321  137.7771  163.6434 C.ar    1  UNL1        0.0293
     18 C         139.0601  137.9787  165.1122 C.ar    1  UNL1       -0.0019
     19 C         144.8613  140.7502  163.8332 C.3     1  UNL1        0.0721
     20 N         144.5721  140.9411  162.3739 N.3     1  UNL1       -0.2724
     21 C         144.0690  139.7913  161.5522 C.3     1  UNL1        0.0758
     22 C         143.7798  139.9823  160.0928 C.3     1  UNL1        0.0609
     23 C         143.9936  141.3230  159.4550 C.3     1  UNL1        0.1687
     24 C         144.4966  142.4727  160.2766 C.3     1  UNL1        0.0609
     25 C         144.7859  142.2818  161.7360 C.3     1  UNL1        0.0758
     26 O         143.7044  141.5139  157.9956 O.3     1  UNL1       -0.4790
     27 C         144.8334  141.5881  157.0107 C.ar    1  UNL1        0.1393
     28 C         146.0737  142.3612  157.3484 C.ar    1  UNL1        0.0378
     29 C         147.2026  142.4354  156.3636 C.ar    1  UNL1        0.0154
     30 C         147.0913  141.7366  155.0410 C.ar    1  UNL1        0.0684
     31 CL        148.2202  141.8108  154.0561 Cl      1  UNL1       -0.0814
     32 C         145.8510  140.9635  154.7032 C.ar    1  UNL1        0.0712
     33 CL        145.7397  140.2647  153.3807 Cl      1  UNL1       -0.0813
     34 C         144.7220  140.8893  155.6882 C.ar    1  UNL1        0.0491
@<TRIPOS>UNITY_ATOM_ATTR
8 1
charge -1
@<TRIPOS>BOND
     1     8     9   ar
     2     9    10   ar
     3     9     7    1
     4     7    11    1
     5    11    12    1
     6    12    13   ar
     7    13    14   ar
     8    14    15   ar
     9    15    16    1
    10    15    17   ar
    11    17    18   ar
    12     7     1    1
    13     1     2    1
    14     2     3    1
    15     3     4    1
    16     4    19    1
    17    19    20    1
    18    20    21    1
    19    21    22    1
    20    22    23    1
    21    23    26    1
    22    26    27    1
    23    27    28   ar
    24    28    29   ar
    25    29    30   ar
    26    30    31    1
    27    30    32   ar
    28    32    33    1
    29    32    34   ar
    30    23    24    1
    31    24    25    1
    32     4     5    1
    33     5     6    1
    34    18    12   ar
    35     6     1    1
    36    25    20    1
    37    34    27   ar
@<TRIPOS>MOLECULE
*****
 34 37 0 0 0
SMALL
GASTEIGER

@<TRIPOS>ATOM
      1 N         141.0621  139.5887  166.9385 N.3     1  UNL1       -0.2691
      2 C         141.9872  138.9216  165.9644 C.3     1  UNL1        0.0724
      3 C         141.4312  138.2309  164.7545 C.3     1  UNL1        0.0188
      4 C         139.9501  138.2073  164.5188 C.3     1  UNL1        0.0188
      5 C         139.0249  138.8745  165.4930 C.3     1  UNL1        0.0188
      6 C         139.5809  139.5652  166.7029 C.3     1  UNL1        0.0724
      7 C         141.6182  140.2794  168.1484 C.3     1  UNL1        0.0987
      8 O         140.4840  139.4551  170.3357 O.co2   1  UNL1       -0.5478
      9 C         141.6964  139.5517  169.4578 C.2     1  UNL1        0.0652
     10 O         142.9869  138.9207  169.8892 O.co2   1  UNL1       -0.5478
     11 C         142.0960  141.6978  168.0489 C.3     1  UNL1        0.0480
     12 C         142.1332  142.3850  166.7161 C.ar    1  UNL1       -0.0203
     13 C         143.4306  142.5131  165.9743 C.ar    1  UNL1       -0.0019
     14 C         143.4677  143.2003  164.6415 C.ar    1  UNL1        0.0293
     15 C         142.2075  143.7593  164.0505 C.ar    1  UNL1        0.1401
     16 F         142.2447  144.4465  162.7176 F       1  UNL1       -0.2042
     17 C         140.9101  143.6312  164.7923 C.ar    1  UNL1        0.0293
     18 C         140.8729  142.9441  166.1251 C.ar    1  UNL1       -0.0019
     19 C         139.3940  137.5166  163.3090 C.3     1  UNL1        0.0721
     20 N         139.0979  138.3029  162.0663 N.3     1  UNL1       -0.2724
     21 C         137.7857  139.0157  161.9247 C.3     1  UNL1        0.0758
     22 C         137.4896  139.8019  160.6821 C.3     1  UNL1        0.0609
     23 C         138.5056  139.8753  159.5811 C.3     1  UNL1        0.1687
     24 C         139.8178  139.1625  159.7226 C.3     1  UNL1        0.0609
     25 C         140.1140  138.3763  160.9653 C.3     1  UNL1        0.0758
     26 O         138.2095  140.6616  158.3385 O.3     1  UNL1       -0.4790
     27 C         138.8443  142.0048  158.1317 C.ar    1  UNL1        0.1393
     28 C         139.1047  142.5054  156.7419 C.ar    1  UNL1        0.0378
     29 C         139.7395  143.8486  156.5351 C.ar    1  UNL1        0.0154
     30 C         140.1139  144.6913  157.7182 C.ar    1  UNL1        0.0684
     31 CL        140.7487  146.0345  157.5114 Cl      1  UNL1       -0.0814
     32 C         139.8535  144.1908  159.1080 C.ar    1  UNL1        0.0712
     33 CL        140.2279  145.0335  160.2911 Cl      1  UNL1       -0.0813
     34 C         139.2187  142.8475  159.3148 C.ar    1  UNL1        0.0491
@<TRIPOS>UNITY_ATOM_ATTR
8 1
charge -1
@<TRIPOS>BOND
     1     8     9   ar
     2     9    10   ar
     3     9     7    1
     4     7    11    1
     5    11    12    1
     6    12    13   ar
     7    13    14   ar
     8    14    15   ar
     9    15    16    1
    10    15    17   ar
    11    17    18   ar
    12     7     1    1
    13     1     2    1
    14     2     3    1
    15     3     4    1
    16     4    19    1
    17    19    20    1
    18    20    21    1
    19    21    22    1
    20    22    23    1
    21    23    26    1
    22    26    27    1
    23    27    28   ar
    24    28    29   ar
    25    29    30   ar
    26    30    31    1
    27    30    32   ar
    28    32    33    1
    29    32    34   ar
    30    23    24    1
    31    24    25    1
    32     4     5    1
    33     5     6    1
    34    18    12   ar
    35     6     1    1
    36    25    20    1
    37    34    27   ar
@<TRIPOS>MOLECULE
*****
 34 37 0 0 0
SMALL
GASTEIGER

@<TRIPOS>ATOM
      1 N         140.0260  139.2947  164.2584 N.3     1  UNL1       -0.2691
      2 C         140.1909  140.5725  163.4903 C.3     1  UNL1        0.0724
      3 C         139.9630  140.5913  162.0079 C.3     1  UNL1        0.0188
      4 C         139.5702  139.3322  161.2935 C.3     1  UNL1        0.0188
      5 C         139.4053  138.0543  162.0615 C.3     1  UNL1        0.0188
      6 C         139.6332  138.0355  163.5440 C.3     1  UNL1        0.0724
      7 C         140.2540  139.2759  165.7408 C.3     1  UNL1        0.0987
      8 O         139.3227  139.6057  168.1438 O.co2   1  UNL1       -0.5478
      9 C         139.0887  139.3754  166.6802 C.2     1  UNL1        0.0652
     10 O         137.6894  139.2447  166.1558 O.co2   1  UNL1       -0.5478
     11 C         141.6471  139.1577  166.2840 C.3     1  UNL1        0.0480
     12 C         142.7883  139.8228  165.5731 C.ar    1  UNL1       -0.0203
     13 C         143.0026  141.3004  165.7170 C.ar    1  UNL1       -0.0019
     14 C         144.1438  141.9654  165.0061 C.ar    1  UNL1        0.0293
     15 C         145.0706  141.1529  164.1512 C.ar    1  UNL1        0.1401
     16 F         146.2118  141.8180  163.4402 F       1  UNL1       -0.2042
     17 C         144.8563  139.6753  164.0073 C.ar    1  UNL1        0.0293
     18 C         143.7151  139.0102  164.7182 C.ar    1  UNL1       -0.0019
     19 C         139.3422  139.3510  159.8110 C.3     1  UNL1        0.0721
     20 N         140.2723  138.6065  158.8997 N.3     1  UNL1       -0.2724
     21 C         139.7763  138.0881  157.5823 C.3     1  UNL1        0.0758
     22 C         140.7064  137.3436  156.6710 C.3     1  UNL1        0.0609
     23 C         142.1326  137.1174  157.0770 C.3     1  UNL1        0.1687
     24 C         142.6287  137.6357  158.3943 C.3     1  UNL1        0.0609
     25 C         141.6985  138.3802  159.3057 C.3     1  UNL1        0.0758
     26 O         143.0627  136.3729  156.1657 O.3     1  UNL1       -0.4790
     27 C         142.9324  134.8864  156.0125 C.ar    1  UNL1        0.1393
     28 C         141.6571  134.2953  155.4889 C.ar    1  UNL1        0.0378
     29 C         141.5267  132.8089  155.3357 C.ar    1  UNL1        0.0154
     30 C         142.6717  131.9134  155.7063 C.ar    1  UNL1        0.0684
     31 CL        142.5413  130.4270  155.5531 Cl      1  UNL1       -0.0814
     32 C         143.9470  132.5045  156.2299 C.ar    1  UNL1        0.0712
     33 CL        145.0919  131.6091  156.6005 Cl      1  UNL1       -0.0813
     34 C         144.0773  133.9910  156.3831 C.ar    1  UNL1        0.0491
@<TRIPOS>UNITY_ATOM_ATTR
8 1
charge -1
@<TRIPOS>BOND
     1     8     9   ar
     2     9    10   ar
     3     9     7    1
     4     7    11    1
     5    11    12    1
     6    12    13   ar
     7    13    14   ar
     8    14    15   ar
     9    15    16    1
    10    15    17   ar
    11    17    18   ar
    12     7     1    1
    13     1     2    1
    14     2     3    1
    15     3     4    1
    16     4    19    1
    17    19    20    1
    18    20    21    1
    19    21    22    1
    20    22    23    1
    21    23    26    1
    22    26    27    1
    23    27    28   ar
    24    28    29   ar
    25    29    30   ar
    26    30    31    1
    27    30    32   ar
    28    32    33    1
    29    32    34   ar
    30    23    24    1
    31    24    25    1
    32     4     5    1
    33     5     6    1
    34    18    12   ar
    35     6     1    1
    36    25    20    1
    37    34    27   ar
@<TRIPOS>MOLECULE
*****
 34 37 0 0 0
SMALL
GASTEIGER

@<TRIPOS>ATOM
      1 N         142.6411  140.9237  159.7123 N.3     1  UNL1       -0.2691
      2 C         142.7814  139.6854  160.5471 C.3     1  UNL1        0.0724
      3 C         141.5677  139.0543  161.1625 C.3     1  UNL1        0.0188
      4 C         140.2138  139.6616  160.9432 C.3     1  UNL1        0.0188
      5 C         140.0735  140.9000  160.1085 C.3     1  UNL1        0.0188
      6 C         141.2872  141.5310  159.4930 C.3     1  UNL1        0.0724
      7 C         143.8548  141.5547  159.0969 C.3     1  UNL1        0.0987
      8 O         145.6134  141.5837  157.1846 O.co2   1  UNL1       -0.5478
      9 C         144.2574  141.1976  157.6967 C.2     1  UNL1        0.0652
     10 O         143.3040  140.4545  156.8086 O.co2   1  UNL1       -0.5478
     11 C         144.6659  142.5428  159.8815 C.3     1  UNL1        0.0480
     12 C         144.4452  142.6901  161.3580 C.ar    1  UNL1       -0.0203
     13 C         145.2872  141.9101  162.3236 C.ar    1  UNL1       -0.0019
     14 C         145.0665  142.0574  163.7999 C.ar    1  UNL1        0.0293
     15 C         144.0038  142.9848  164.3106 C.ar    1  UNL1        0.1401
     16 F         143.7831  143.1320  165.7870 F       1  UNL1       -0.2042
     17 C         143.1618  143.7648  163.3449 C.ar    1  UNL1        0.0293
     18 C         143.3825  143.6175  161.8686 C.ar    1  UNL1       -0.0019
     19 C         139.0001  139.0306  161.5587 C.3     1  UNL1        0.0721
     20 N         138.8275  139.0329  163.0487 N.3     1  UNL1       -0.2724
     21 C         139.1098  137.7892  163.8384 C.3     1  UNL1        0.0758
     22 C         138.9372  137.7915  165.3284 C.3     1  UNL1        0.0609
     23 C         138.4824  139.0376  166.0288 C.3     1  UNL1        0.1687
     24 C         138.2001  140.2813  165.2392 C.3     1  UNL1        0.0609
     25 C         138.3727  140.2790  163.7491 C.3     1  UNL1        0.0758
     26 O         138.3098  139.0399  167.5188 O.3     1  UNL1       -0.4790
     27 C         139.2497  139.8289  168.3815 C.ar    1  UNL1        0.1393
     28 C         138.7927  140.3408  169.7153 C.ar    1  UNL1        0.0378
     29 C         139.7325  141.1298  170.5780 C.ar    1  UNL1        0.0154
     30 C         141.1295  141.4068  170.1068 C.ar    1  UNL1        0.0684
     31 CL        142.0693  142.1958  170.9695 Cl      1  UNL1       -0.0814
     32 C         141.5865  140.8949  168.7730 C.ar    1  UNL1        0.0712
     33 CL        142.9833  141.1720  168.3018 Cl      1  UNL1       -0.0813
     34 C         140.6466  140.1059  167.9103 C.ar    1  UNL1        0.0491
@<TRIPOS>UNITY_ATOM_ATTR
8 1
charge -1
@<TRIPOS>BOND
     1     8     9   ar
     2     9    10   ar
     3     9     7    1
     4     7    11    1
     5    11    12    1
     6    12    13   ar
     7    13    14   ar
     8    14    15   ar
     9    15    16    1
    10    15    17   ar
    11    17    18   ar
    12     7     1    1
    13     1     2    1
    14     2     3    1
    15     3     4    1
    16     4    19    1
    17    19    20    1
    18    20    21    1
    19    21    22    1
    20    22    23    1
    21    23    26    1
    22    26    27    1
    23    27    28   ar
    24    28    29   ar
    25    29    30   ar
    26    30    31    1
    27    30    32   ar
    28    32    33    1
    29    32    34   ar
    30    23    24    1
    31    24    25    1
    32     4     5    1
    33     5     6    1
    34    18    12   ar
    35     6     1    1
    36    25    20    1
    37    34    27   ar
@<TRIPOS>MOLECULE
*****
 34 37 0 0 0
SMALL
GASTEIGER

@<TRIPOS>ATOM
      1 N         142.1043  137.1226  157.4008 N.3     1  UNL1       -0.2691
      2 C         142.5338  137.8440  158.6438 C.3     1  UNL1        0.0724
      3 C         141.5685  138.7389  159.3630 C.3     1  UNL1        0.0188
      4 C         140.1737  138.9125  158.8393 C.3     1  UNL1        0.0188
      5 C         139.7442  138.1911  157.5962 C.3     1  UNL1        0.0188
      6 C         140.7095  137.2961  156.8770 C.3     1  UNL1        0.0724
      7 C         143.0696  136.2277  156.6815 C.3     1  UNL1        0.0987
      8 O         143.0340  136.4028  154.0896 O.co2   1  UNL1       -0.5478
      9 C         143.7046  136.6842  155.4015 C.2     1  UNL1        0.0652
     10 O         145.0100  137.4222  155.4334 O.co2   1  UNL1       -0.5478
     11 C         143.4000  134.8763  157.2423 C.3     1  UNL1        0.0480
     12 C         143.1902  133.6467  156.4090 C.ar    1  UNL1       -0.0203
     13 C         144.3115  132.6687  156.2197 C.ar    1  UNL1       -0.0019
     14 C         144.1017  131.4392  155.3865 C.ar    1  UNL1        0.0293
     15 C         142.7705  131.1878  154.7425 C.ar    1  UNL1        0.1401
     16 F         142.5607  129.9583  153.9092 F       1  UNL1       -0.2042
     17 C         141.6492  132.1659  154.9317 C.ar    1  UNL1        0.0293
     18 C         141.8590  133.3954  155.7650 C.ar    1  UNL1       -0.0019
     19 C         139.2084  139.8074  159.5585 C.3     1  UNL1        0.0721
     20 N         138.9780  139.6330  161.0304 N.3     1  UNL1       -0.2724
     21 C         138.9409  138.2568  161.6259 C.3     1  UNL1        0.0758
     22 C         138.7105  138.0824  163.0977 C.3     1  UNL1        0.0609
     23 C         138.5172  139.2842  163.9742 C.3     1  UNL1        0.1687
     24 C         138.5543  140.6605  163.3788 C.3     1  UNL1        0.0609
     25 C         138.7847  140.8349  161.9068 C.3     1  UNL1        0.0758
     26 O         138.2868  139.1099  165.4461 O.3     1  UNL1       -0.4790
     27 C         139.3927  139.3980  166.4177 C.ar    1  UNL1        0.1393
     28 C         140.8221  139.3355  165.9671 C.ar    1  UNL1        0.0378
     29 C         141.9280  139.6236  166.9387 C.ar    1  UNL1        0.0154
     30 C         141.6045  139.9742  168.3608 C.ar    1  UNL1        0.0684
     31 CL        142.7104  140.2624  169.3324 Cl      1  UNL1       -0.0814
     32 C         140.1752  140.0367  168.8114 C.ar    1  UNL1        0.0712
     33 CL        139.8517  140.3873  170.2335 Cl      1  UNL1       -0.0813
     34 C         139.0692  139.7486  167.8398 C.ar    1  UNL1        0.0491
@<TRIPOS>UNITY_ATOM_ATTR
8 1
charge -1
@<TRIPOS>BOND
     1     8     9   ar
     2     9    10   ar
     3     9     7    1
     4     7    11    1
     5    11    12    1
     6    12    13   ar
     7    13    14   ar
     8    14    15   ar
     9    15    16    1
    10    15    17   ar
    11    17    18   ar
    12     7     1    1
    13     1     2    1
    14     2     3    1
    15     3     4    1
    16     4    19    1
    17    19    20    1
    18    20    21    1
    19    21    22    1
    20    22    23    1
    21    23    26    1
    22    26    27    1
    23    27    28   ar
    24    28    29   ar
    25    29    30   ar
    26    30    31    1
    27    30    32   ar
    28    32    33    1
    29    32    34   ar
    30    23    24    1
    31    24    25    1
    32     4     5    1
    33     5     6    1
    34    18    12   ar
    35     6     1    1
    36    25    20    1
    37    34    27   ar
@<TRIPOS>MOLECULE
*****
 34 37 0 0 0
SMALL
GASTEIGER

@<TRIPOS>ATOM
      1 N         139.8149  141.3064  166.4757 N.3     1  UNL1       -0.2691
      2 C         138.9907  140.7596  165.3480 C.3     1  UNL1        0.0724
      3 C         138.4360  141.6859  164.3067 C.3     1  UNL1        0.0188
      4 C         138.7055  143.1590  164.3931 C.3     1  UNL1        0.0188
      5 C         139.5297  143.7058  165.5208 C.3     1  UNL1        0.0188
      6 C         140.0844  142.7795  166.5622 C.3     1  UNL1        0.0724
      7 C         140.3695  140.3801  167.5170 C.3     1  UNL1        0.0987
      8 O         139.8291  139.9705  170.0251 O.co2   1  UNL1       -0.5478
      9 C         139.4691  139.8179  168.5769 C.2     1  UNL1        0.0652
     10 O         138.2089  139.1032  168.1887 O.co2   1  UNL1       -0.5478
     11 C         141.8245  140.0160  167.4985 C.3     1  UNL1        0.0480
     12 C         142.5899  140.0503  166.2088 C.ar    1  UNL1       -0.0203
     13 C         142.6418  138.8323  165.3349 C.ar    1  UNL1       -0.0019
     14 C         143.4072  138.8667  164.0453 C.ar    1  UNL1        0.0293
     15 C         144.1206  140.1190  163.6297 C.ar    1  UNL1        0.1401
     16 F         144.8859  140.1533  162.3400 F       1  UNL1       -0.2042
     17 C         144.0686  141.3370  164.5036 C.ar    1  UNL1        0.0293
     18 C         143.3033  141.3026  165.7932 C.ar    1  UNL1       -0.0019
     19 C         138.1508  144.0852  163.3518 C.3     1  UNL1        0.0721
     20 N         138.8681  144.2617  162.0463 N.3     1  UNL1       -0.2724
     21 C         138.8262  143.1739  161.0144 C.3     1  UNL1        0.0758
     22 C         139.5436  143.3504  159.7089 C.3     1  UNL1        0.0609
     23 C         140.3028  144.6147  159.4353 C.3     1  UNL1        0.1687
     24 C         140.3448  145.7026  160.4672 C.3     1  UNL1        0.0609
     25 C         139.6274  145.5261  161.7727 C.3     1  UNL1        0.0758
     26 O         141.0201  144.7913  158.1299 O.3     1  UNL1       -0.4790
     27 C         142.2076  143.9343  157.8047 C.ar    1  UNL1        0.1393
     28 C         143.0859  143.4203  158.9068 C.ar    1  UNL1        0.0378
     29 C         144.2733  142.5635  158.5817 C.ar    1  UNL1        0.0154
     30 C         144.5825  142.2205  157.1545 C.ar    1  UNL1        0.0684
     31 CL        145.7700  141.3637  156.8294 Cl      1  UNL1       -0.0814
     32 C         143.7043  142.7346  156.0524 C.ar    1  UNL1        0.0712
     33 CL        144.0135  142.3917  154.6253 Cl      1  UNL1       -0.0813
     34 C         142.5168  143.5915  156.3776 C.ar    1  UNL1        0.0491
@<TRIPOS>UNITY_ATOM_ATTR
8 1
charge -1
@<TRIPOS>BOND
     1     8     9   ar
     2     9    10   ar
     3     9     7    1
     4     7    11    1
     5    11    12    1
     6    12    13   ar
     7    13    14   ar
     8    14    15   ar
     9    15    16    1
    10    15    17   ar
    11    17    18   ar
    12     7     1    1
    13     1     2    1
    14     2     3    1
    15     3     4    1
    16     4    19    1
    17    19    20    1
    18    20    21    1
    19    21    22    1
    20    22    23    1
    21    23    26    1
    22    26    27    1
    23    27    28   ar
    24    28    29   ar
    25    29    30   ar
    26    30    31    1
    27    30    32   ar
    28    32    33    1
    29    32    34   ar
    30    23    24    1
    31    24    25    1
    32     4     5    1
    33     5     6    1
    34    18    12   ar
    35     6     1    1
    36    25    20    1
    37    34    27   ar
@<TRIPOS>MOLECULE
*****
 34 37 0 0 0
SMALL
GASTEIGER

@<TRIPOS>ATOM
      1 N         140.1777  141.1207  165.9325 N.3     1  UNL1       -0.2691
      2 C         141.5160  140.7272  165.3813 C.3     1  UNL1        0.0724
      3 C         142.3059  141.7037  164.5612 C.3     1  UNL1        0.0188
      4 C         141.7574  143.0736  164.2922 C.3     1  UNL1        0.0188
      5 C         140.4190  143.4672  164.8435 C.3     1  UNL1        0.0188
      6 C         139.6291  142.4907  165.6636 C.3     1  UNL1        0.0724
      7 C         139.3878  140.1443  166.7527 C.3     1  UNL1        0.0987
      8 O         137.3566  138.5312  166.9020 O.co2   1  UNL1       -0.5478
      9 C         138.4057  139.2269  166.0863 C.2     1  UNL1        0.0652
     10 O         138.4728  139.0052  164.6043 O.co2   1  UNL1       -0.5478
     11 C         139.5800  140.0852  168.2391 C.3     1  UNL1        0.0480
     12 C         140.5797  140.9855  168.9025 C.ar    1  UNL1       -0.0203
     13 C         140.1811  142.3700  169.3199 C.ar    1  UNL1       -0.0019
     14 C         141.1808  143.2703  169.9833 C.ar    1  UNL1        0.0293
     15 C         142.5790  142.7861  170.2293 C.ar    1  UNL1        0.1401
     16 F         143.5787  143.6864  170.8927 F       1  UNL1       -0.2042
     17 C         142.9776  141.4016  169.8118 C.ar    1  UNL1        0.0293
     18 C         141.9779  140.5013  169.1485 C.ar    1  UNL1       -0.0019
     19 C         142.5473  144.0501  163.4721 C.3     1  UNL1        0.0721
     20 N         142.4921  143.9889  161.9744 N.3     1  UNL1       -0.2724
     21 C         143.4515  143.1136  161.2236 C.3     1  UNL1        0.0758
     22 C         143.3963  143.0524  159.7259 C.3     1  UNL1        0.0609
     23 C         142.3818  143.8665  158.9789 C.3     1  UNL1        0.1687
     24 C         141.4225  144.7417  159.7296 C.3     1  UNL1        0.0609
     25 C         141.4776  144.8030  161.2273 C.3     1  UNL1        0.0758
     26 O         142.3267  143.8053  157.4812 O.3     1  UNL1       -0.4790
     27 C         141.0525  144.1389  156.7633 C.ar    1  UNL1        0.1393
     28 C         139.9840  143.0975  156.6088 C.ar    1  UNL1        0.0378
     29 C         138.7099  143.4310  155.8910 C.ar    1  UNL1        0.0154
     30 C         138.5042  144.8059  155.3276 C.ar    1  UNL1        0.0684
     31 CL        137.2300  145.1395  154.6098 Cl      1  UNL1       -0.0814
     32 C         139.5727  145.8473  155.4821 C.ar    1  UNL1        0.0712
     33 CL        139.3670  147.2222  154.9188 Cl      1  UNL1       -0.0813
     34 C         140.8468  145.5137  156.2000 C.ar    1  UNL1        0.0491
@<TRIPOS>UNITY_ATOM_ATTR
8 1
charge -1
@<TRIPOS>BOND
     1     8     9   ar
     2     9    10   ar
     3     9     7    1
     4     7    11    1
     5    11    12    1
     6    12    13   ar
     7    13    14   ar
     8    14    15   ar
     9    15    16    1
    10    15    17   ar
    11    17    18   ar
    12     7     1    1
    13     1     2    1
    14     2     3    1
    15     3     4    1
    16     4    19    1
    17    19    20    1
    18    20    21    1
    19    21    22    1
    20    22    23    1
    21    23    26    1
    22    26    27    1
    23    27    28   ar
    24    28    29   ar
    25    29    30   ar
    26    30    31    1
    27    30    32   ar
    28    32    33    1
    29    32    34   ar
    30    23    24    1
    31    24    25    1
    32     4     5    1
    33     5     6    1
    34    18    12   ar
    35     6     1    1
    36    25    20    1
    37    34    27   ar
