@<TRIPOS>MOLECULE
*****
 22 23 0 0 0
SMALL
GASTEIGER

@<TRIPOS>ATOM
      1 C         138.2816  139.6628  162.9807 C.ar    1  UNL1        0.0306
      2 C         138.0818  140.6210  161.8442 C.ar    1  UNL1        0.0329
      3 C         137.9033  142.0847  162.1198 C.ar    1  UNL1        0.1737
      4 F         137.7035  143.0430  160.9831 F       1  UNL1       -0.2010
      5 C         137.9247  142.5900  163.5319 C.ar    1  UNL1        0.1690
      6 C         138.1244  141.6318  164.6684 C.ar    1  UNL1        0.0764
      7 C         138.3029  140.1681  164.3928 C.ar    1  UNL1        0.1457
      8 O         137.7462  144.0537  163.8074 O.3     1  UNL1       -0.4691
      9 C         138.5269  144.7105  164.9070 C.3     1  UNL1        0.2526
     10 C         138.4601  138.1992  162.7051 C.3     1  UNL1        0.0988
     11 C         140.9643  137.5200  162.8372 C.3     1  UNL1        0.0861
     12 N         139.5664  137.4393  163.3750 N.3     1  UNL1       -0.2925
     13 H         139.6034  137.7638  164.3412 H       1  UNL1        0.1236
     14 O         138.5027  139.2098  165.5294 O.3     1  UNL1       -0.4536
     15 C         139.5833  139.4591  166.5395 C.ar    1  UNL1        0.1462
     16 C         141.0245  139.3723  166.1329 C.ar    1  UNL1        0.0384
     17 C         142.1051  139.6216  167.1429 C.ar    1  UNL1        0.0154
     18 C         141.7444  139.9577  168.5596 C.ar    1  UNL1        0.0684
     19 CL        142.8250  140.2070  169.5696 Cl      1  UNL1       -0.0814
     20 C         140.3033  140.0446  168.9662 C.ar    1  UNL1        0.0712
     21 CL        139.9426  140.3807  170.3829 Cl      1  UNL1       -0.0813
     22 C         139.2226  139.7953  167.9562 C.ar    1  UNL1        0.0497
@<TRIPOS>BOND
     1    11    12    1
     2    12    10    1
     3    10     1    1
     4     1     2   ar
     5     2     3   ar
     6     3     4    1
     7     3     5   ar
     8     5     8    1
     9     8     9    1
    10     5     6   ar
    11     6     7   ar
    12     7    14    1
    13    14    15    1
    14    15    16   ar
    15    16    17   ar
    16    17    18   ar
    17    18    19    1
    18    18    20   ar
    19    20    21    1
    20    20    22   ar
    21     7     1   ar
    22    22    15   ar
    23    12    13    1
@<TRIPOS>MOLECULE
*****
 22 23 0 0 0
SMALL
GASTEIGER

@<TRIPOS>ATOM
      1 C         142.8802  143.9065  164.2979 C.ar    1  UNL1        0.0306
      2 C         142.4563  144.9588  163.3167 C.ar    1  UNL1        0.0329
      3 C         140.9998  145.2613  163.1239 C.ar    1  UNL1        0.1737
      4 F         140.5759  146.3137  162.1426 F       1  UNL1       -0.2010
      5 C         139.9673  144.5115  163.9123 C.ar    1  UNL1        0.1690
      6 C         140.3912  143.4592  164.8935 C.ar    1  UNL1        0.0764
      7 C         141.8477  143.1567  165.0863 C.ar    1  UNL1        0.1457
      8 O         138.5108  144.8140  163.7195 O.3     1  UNL1       -0.4691
      9 C         137.5859  143.7515  163.2042 C.3     1  UNL1        0.2526
     10 C         144.3367  143.6040  164.4907 C.3     1  UNL1        0.0988
     11 C         145.7653  141.6430  163.5614 C.3     1  UNL1        0.0861
     12 N         144.8020  142.1807  164.5778 N.3     1  UNL1       -0.2925
     13 H         145.2448  142.0709  165.4900 H       1  UNL1        0.1236
     14 O         142.2716  142.1043  166.0676 O.3     1  UNL1       -0.4536
     15 C         141.3076  141.6176  167.1086 C.ar    1  UNL1        0.1462
     16 C         140.5431  140.3461  166.8868 C.ar    1  UNL1        0.0384
     17 C         139.5791  139.8594  167.9278 C.ar    1  UNL1        0.0154
     18 C         139.3794  140.6440  169.1905 C.ar    1  UNL1        0.0684
     19 CL        138.4154  140.1573  170.2315 Cl      1  UNL1       -0.0814
     20 C         140.1439  141.9154  169.4123 C.ar    1  UNL1        0.0712
     21 CL        139.9443  142.7000  170.6751 Cl      1  UNL1       -0.0813
     22 C         141.1080  142.4022  168.3713 C.ar    1  UNL1        0.0497
@<TRIPOS>BOND
     1    11    12    1
     2    12    10    1
     3    10     1    1
     4     1     2   ar
     5     2     3   ar
     6     3     4    1
     7     3     5   ar
     8     5     8    1
     9     8     9    1
    10     5     6   ar
    11     6     7   ar
    12     7    14    1
    13    14    15    1
    14    15    16   ar
    15    16    17   ar
    16    17    18   ar
    17    18    19    1
    18    18    20   ar
    19    20    21    1
    20    20    22   ar
    21     7     1   ar
    22    22    15   ar
    23    12    13    1
@<TRIPOS>MOLECULE
*****
 22 23 0 0 0
SMALL
GASTEIGER

@<TRIPOS>ATOM
      1 C         139.7735  138.4204  164.5889 C.ar    1  UNL1        0.0306
      2 C         138.4869  138.1328  165.3044 C.ar    1  UNL1        0.0329
      3 C         138.2714  138.6482  166.6965 C.ar    1  UNL1        0.1737
      4 F         136.9847  138.3605  167.4119 F       1  UNL1       -0.2010
      5 C         139.3424  139.4513  167.3731 C.ar    1  UNL1        0.1690
      6 C         140.6290  139.7390  166.6576 C.ar    1  UNL1        0.0764
      7 C         140.8445  139.2235  165.2655 C.ar    1  UNL1        0.1457
      8 O         139.1269  139.9667  168.7652 O.3     1  UNL1       -0.4691
      9 C         140.2807  140.0539  169.7197 C.3     1  UNL1        0.2526
     10 C         139.9890  137.9050  163.1969 C.3     1  UNL1        0.0988
     11 C         142.0928  137.6694  161.6907 C.3     1  UNL1        0.0861
     12 N         141.2645  137.1966  162.8485 N.3     1  UNL1       -0.2925
     13 H         141.8609  137.2407  163.6747 H       1  UNL1        0.1236
     14 O         142.1312  139.5112  164.5501 O.3     1  UNL1       -0.4536
     15 C         142.5238  140.9282  164.2534 C.ar    1  UNL1        0.1462
     16 C         141.9545  141.6291  163.0556 C.ar    1  UNL1        0.0384
     17 C         142.3471  143.0461  162.7590 C.ar    1  UNL1        0.0154
     18 C         143.3089  143.7622  163.6601 C.ar    1  UNL1        0.0684
     19 CL        143.7015  145.1792  163.3635 Cl      1  UNL1       -0.0814
     20 C         143.8782  143.0614  164.8579 C.ar    1  UNL1        0.0712
     21 CL        144.8400  143.7775  165.7590 Cl      1  UNL1       -0.0813
     22 C         143.4856  141.6443  165.1546 C.ar    1  UNL1        0.0497
@<TRIPOS>BOND
     1    11    12    1
     2    12    10    1
     3    10     1    1
     4     1     2   ar
     5     2     3   ar
     6     3     4    1
     7     3     5   ar
     8     5     8    1
     9     8     9    1
    10     5     6   ar
    11     6     7   ar
    12     7    14    1
    13    14    15    1
    14    15    16   ar
    15    16    17   ar
    16    17    18   ar
    17    18    19    1
    18    18    20   ar
    19    20    21    1
    20    20    22   ar
    21     7     1   ar
    22    22    15   ar
    23    12    13    1
@<TRIPOS>MOLECULE
*****
 22 23 0 0 0
SMALL
GASTEIGER

@<TRIPOS>ATOM
      1 C         141.6335  140.9229  167.1494 C.ar    1  UNL1        0.0306
      2 C         142.7352  139.9067  167.2096 C.ar    1  UNL1        0.0329
      3 C         142.6966  138.7047  166.3132 C.ar    1  UNL1        0.1737
      4 F         143.7984  137.6885  166.3734 F       1  UNL1       -0.2010
      5 C         141.5562  138.5187  165.3567 C.ar    1  UNL1        0.1690
      6 C         140.4545  139.5348  165.2965 C.ar    1  UNL1        0.0764
      7 C         140.4932  140.7369  166.1929 C.ar    1  UNL1        0.1457
      8 O         141.5176  137.3166  164.4603 O.3     1  UNL1       -0.4691
      9 C         140.9394  137.4281  163.0807 C.3     1  UNL1        0.2526
     10 C         141.6721  142.1250  168.0458 C.3     1  UNL1        0.0988
     11 C         140.4853  143.7234  169.7150 C.3     1  UNL1        0.0861
     12 N         140.4757  142.4782  168.8787 N.3     1  UNL1       -0.2925
     13 H         139.6852  142.5591  168.2392 H       1  UNL1        0.1236
     14 O         139.3914  141.7531  166.1327 O.3     1  UNL1       -0.4536
     15 C         139.4321  142.8434  165.1034 C.ar    1  UNL1        0.1462
     16 C         138.2073  143.1600  164.2973 C.ar    1  UNL1        0.0384
     17 C         138.2481  144.2503  163.2680 C.ar    1  UNL1        0.0154
     18 C         139.5135  145.0241  163.0448 C.ar    1  UNL1        0.0684
     19 CL        139.5542  146.1144  162.0155 Cl      1  UNL1       -0.0814
     20 C         140.7382  144.7076  163.8509 C.ar    1  UNL1        0.0712
     21 CL        142.0037  145.4815  163.6277 Cl      1  UNL1       -0.0813
     22 C         140.6976  143.6173  164.8802 C.ar    1  UNL1        0.0497
@<TRIPOS>BOND
     1    11    12    1
     2    12    10    1
     3    10     1    1
     4     1     2   ar
     5     2     3   ar
     6     3     4    1
     7     3     5   ar
     8     5     8    1
     9     8     9    1
    10     5     6   ar
    11     6     7   ar
    12     7    14    1
    13    14    15    1
    14    15    16   ar
    15    16    17   ar
    16    17    18   ar
    17    18    19    1
    18    18    20   ar
    19    20    21    1
    20    20    22   ar
    21     7     1   ar
    22    22    15   ar
    23    12    13    1
@<TRIPOS>MOLECULE
*****
 22 23 0 0 0
SMALL
GASTEIGER

@<TRIPOS>ATOM
      1 C         141.6535  139.2892  166.7616 C.ar    1  UNL1        0.0306
      2 C         142.6409  139.4059  167.8846 C.ar    1  UNL1        0.0329
      3 C         142.1828  139.8462  169.2434 C.ar    1  UNL1        0.1737
      4 F         143.1703  139.9629  170.3665 F       1  UNL1       -0.2010
      5 C         140.7373  140.1698  169.4791 C.ar    1  UNL1        0.1690
      6 C         139.7498  140.0531  168.3561 C.ar    1  UNL1        0.0764
      7 C         140.2080  139.6128  166.9973 C.ar    1  UNL1        0.1457
      8 O         140.2791  140.6101  170.8379 O.3     1  UNL1       -0.4691
      9 C         140.6261  141.9807  171.3387 C.3     1  UNL1        0.2526
     10 C         142.1116  138.8489  165.4028 C.3     1  UNL1        0.0988
     11 C         141.0710  137.6208  163.3635 C.3     1  UNL1        0.0861
     12 N         141.5442  137.6045  164.7868 N.3     1  UNL1       -0.2925
     13 H         142.2685  136.8890  164.8481 H       1  UNL1        0.1236
     14 O         139.2204  139.4961  165.8742 O.3     1  UNL1       -0.4536
     15 C         138.8073  140.7181  165.1088 C.ar    1  UNL1        0.1462
     16 C         137.8671  140.5930  163.9467 C.ar    1  UNL1        0.0384
     17 C         137.4540  141.8150  163.1812 C.ar    1  UNL1        0.0154
     18 C         137.9811  143.1622  163.5778 C.ar    1  UNL1        0.0684
     19 CL        137.5680  144.3843  162.8124 Cl      1  UNL1       -0.0814
     20 C         138.9212  143.2874  164.7398 C.ar    1  UNL1        0.0712
     21 CL        139.4483  144.6346  165.1364 Cl      1  UNL1       -0.0813
     22 C         139.3344  142.0653  165.5053 C.ar    1  UNL1        0.0497
@<TRIPOS>BOND
     1    11    12    1
     2    12    10    1
     3    10     1    1
     4     1     2   ar
     5     2     3   ar
     6     3     4    1
     7     3     5   ar
     8     5     8    1
     9     8     9    1
    10     5     6   ar
    11     6     7   ar
    12     7    14    1
    13    14    15    1
    14    15    16   ar
    15    16    17   ar
    16    17    18   ar
    17    18    19    1
    18    18    20   ar
    19    20    21    1
    20    20    22   ar
    21     7     1   ar
    22    22    15   ar
    23    12    13    1
@<TRIPOS>MOLECULE
*****
 22 23 0 0 0
SMALL
GASTEIGER

@<TRIPOS>ATOM
      1 C         140.9786  144.4686  163.2457 C.ar    1  UNL1        0.0306
      2 C         142.0294  145.3876  163.7946 C.ar    1  UNL1        0.0329
      3 C         143.3578  144.8376  164.2221 C.ar    1  UNL1        0.1737
      4 F         144.4086  145.7567  164.7710 F       1  UNL1       -0.2010
      5 C         143.6355  143.3685  164.1007 C.ar    1  UNL1        0.1690
      6 C         142.5848  142.4496  163.5518 C.ar    1  UNL1        0.0764
      7 C         141.2563  142.9996  163.1243 C.ar    1  UNL1        0.1457
      8 O         144.9639  142.8185  164.5281 O.3     1  UNL1       -0.4691
      9 C         145.6322  141.7525  163.7115 C.3     1  UNL1        0.2526
     10 C         139.6502  145.0187  162.8183 C.3     1  UNL1        0.0988
     11 C         138.2959  144.5863  164.9928 C.3     1  UNL1        0.0861
     12 N         138.3942  144.5576  163.4963 N.3     1  UNL1       -0.2925
     13 H         137.6365  145.1401  163.1402 H       1  UNL1        0.1236
     14 O         140.2056  142.0805  162.5754 O.3     1  UNL1       -0.4536
     15 C         139.7758  140.8779  163.3621 C.ar    1  UNL1        0.1462
     16 C         138.6409  140.9857  164.3370 C.ar    1  UNL1        0.0384
     17 C         138.2111  139.7831  165.1237 C.ar    1  UNL1        0.0154
     18 C         138.9163  138.4726  164.9355 C.ar    1  UNL1        0.0684
     19 CL        138.4865  137.2700  165.7222 Cl      1  UNL1       -0.0814
     20 C         140.0511  138.3647  163.9607 C.ar    1  UNL1        0.0712
     21 CL        140.7563  137.0542  163.7725 Cl      1  UNL1       -0.0813
     22 C         140.4809  139.5674  163.1739 C.ar    1  UNL1        0.0497
@<TRIPOS>BOND
     1    11    12    1
     2    12    10    1
     3    10     1    1
     4     1     2   ar
     5     2     3   ar
     6     3     4    1
     7     3     5   ar
     8     5     8    1
     9     8     9    1
    10     5     6   ar
    11     6     7   ar
    12     7    14    1
    13    14    15    1
    14    15    16   ar
    15    16    17   ar
    16    17    18   ar
    17    18    19    1
    18    18    20   ar
    19    20    21    1
    20    20    22   ar
    21     7     1   ar
    22    22    15   ar
    23    12    13    1
@<TRIPOS>MOLECULE
*****
 22 23 0 0 0
SMALL
GASTEIGER

@<TRIPOS>ATOM
      1 C         138.4627  143.3199  163.9525 C.ar    1  UNL1        0.0306
      2 C         138.5970  144.4428  162.9671 C.ar    1  UNL1        0.0329
      3 C         139.8870  145.2016  162.8660 C.ar    1  UNL1        0.1737
      4 F         140.0214  146.3245  161.8805 F       1  UNL1       -0.2010
      5 C         141.0426  144.8375  163.7503 C.ar    1  UNL1        0.1690
      6 C         140.9082  143.7146  164.7357 C.ar    1  UNL1        0.0764
      7 C         139.6183  142.9558  164.8368 C.ar    1  UNL1        0.1457
      8 O         142.3326  145.5963  163.6491 O.3     1  UNL1       -0.4691
      9 C         143.6176  144.9512  164.0763 C.3     1  UNL1        0.2526
     10 C         137.1727  142.5612  164.0537 C.3     1  UNL1        0.0988
     11 C         137.9786  140.6318  162.5115 C.3     1  UNL1        0.0861
     12 N         136.8670  141.4676  163.0736 N.3     1  UNL1       -0.2925
     13 H         136.2232  140.8273  163.5382 H       1  UNL1        0.1236
     14 O         139.4839  141.8329  165.8223 O.3     1  UNL1       -0.4536
     15 C         140.6085  140.8573  166.0055 C.ar    1  UNL1        0.1462
     16 C         141.2143  140.6575  167.3631 C.ar    1  UNL1        0.0384
     17 C         142.3388  139.6819  167.5463 C.ar    1  UNL1        0.0154
     18 C         142.8575  138.9061  166.3720 C.ar    1  UNL1        0.0684
     19 CL        143.9821  137.9305  166.5552 Cl      1  UNL1       -0.0814
     20 C         142.2517  139.1059  165.0144 C.ar    1  UNL1        0.0712
     21 CL        142.7705  138.3301  163.8401 Cl      1  UNL1       -0.0813
     22 C         141.1272  140.0815  164.8311 C.ar    1  UNL1        0.0497
@<TRIPOS>BOND
     1    11    12    1
     2    12    10    1
     3    10     1    1
     4     1     2   ar
     5     2     3   ar
     6     3     4    1
     7     3     5   ar
     8     5     8    1
     9     8     9    1
    10     5     6   ar
    11     6     7   ar
    12     7    14    1
    13    14    15    1
    14    15    16   ar
    15    16    17   ar
    16    17    18   ar
    17    18    19    1
    18    18    20   ar
    19    20    21    1
    20    20    22   ar
    21     7     1   ar
    22    22    15   ar
    23    12    13    1
@<TRIPOS>MOLECULE
*****
 22 23 0 0 0
SMALL
GASTEIGER

@<TRIPOS>ATOM
      1 C         138.4228  142.8713  164.1733 C.ar    1  UNL1        0.0306
      2 C         137.6967  142.3388  162.9737 C.ar    1  UNL1        0.0329
      3 C         137.7007  140.8665  162.6870 C.ar    1  UNL1        0.1737
      4 F         136.9745  140.3340  161.4873 F       1  UNL1       -0.2010
      5 C         138.4309  139.9266  163.5998 C.ar    1  UNL1        0.1690
      6 C         139.1571  140.4590  164.7995 C.ar    1  UNL1        0.0764
      7 C         139.1530  141.9314  165.0862 C.ar    1  UNL1        0.1457
      8 O         138.4350  138.4543  163.3131 O.3     1  UNL1       -0.4691
      9 C         139.7292  137.6962  163.3004 C.3     1  UNL1        0.2526
     10 C         138.4188  144.3436  164.4601 C.3     1  UNL1        0.0988
     11 C         140.7322  144.9961  163.4740 C.3     1  UNL1        0.0861
     12 N         139.7154  145.0893  164.5728 N.3     1  UNL1       -0.2925
     13 H         139.4795  146.0766  164.6727 H       1  UNL1        0.1236
     14 O         139.8792  142.4638  166.2859 O.3     1  UNL1       -0.4536
     15 C         140.5737  141.5199  167.2222 C.ar    1  UNL1        0.1462
     16 C         141.8998  140.9290  166.8446 C.ar    1  UNL1        0.0384
     17 C         142.5942  139.9851  167.7809 C.ar    1  UNL1        0.0154
     18 C         141.9627  139.6320  169.0948 C.ar    1  UNL1        0.0684
     19 CL        142.6572  138.6881  170.0311 Cl      1  UNL1       -0.0814
     20 C         140.6367  140.2228  169.4725 C.ar    1  UNL1        0.0712
     21 CL        140.0052  139.8697  170.7865 Cl      1  UNL1       -0.0813
     22 C         139.9422  141.1668  168.5362 C.ar    1  UNL1        0.0497
@<TRIPOS>BOND
     1    11    12    1
     2    12    10    1
     3    10     1    1
     4     1     2   ar
     5     2     3   ar
     6     3     4    1
     7     3     5   ar
     8     5     8    1
     9     8     9    1
    10     5     6   ar
    11     6     7   ar
    12     7    14    1
    13    14    15    1
    14    15    16   ar
    15    16    17   ar
    16    17    18   ar
    17    18    19    1
    18    18    20   ar
    19    20    21    1
    20    20    22   ar
    21     7     1   ar
    22    22    15   ar
    23    12    13    1
@<TRIPOS>MOLECULE
*****
 22 23 0 0 0
SMALL
GASTEIGER

@<TRIPOS>ATOM
      1 C         138.8389  142.7115  164.0733 C.ar    1  UNL1        0.0306
      2 C         138.6214  144.0154  163.3646 C.ar    1  UNL1        0.0329
      3 C         139.7705  144.9569  163.1567 C.ar    1  UNL1        0.1737
      4 F         139.5528  146.2609  162.4480 F       1  UNL1       -0.2010
      5 C         141.1371  144.5944  163.6575 C.ar    1  UNL1        0.1690
      6 C         141.3547  143.2905  164.3662 C.ar    1  UNL1        0.0764
      7 C         140.2056  142.3490  164.5741 C.ar    1  UNL1        0.1457
      8 O         142.2862  145.5359  163.4496 O.3     1  UNL1       -0.4691
      9 C         143.6874  145.0840  163.7364 C.3     1  UNL1        0.2526
     10 C         137.6899  141.7700  164.2812 C.3     1  UNL1        0.0988
     11 C         137.6004  140.6857  161.9220 C.3     1  UNL1        0.0861
     12 N         136.8971  141.2828  163.1047 N.3     1  UNL1       -0.2925
     13 H         136.2559  140.5716  163.4559 H       1  UNL1        0.1236
     14 O         140.4232  141.0450  165.2828 O.3     1  UNL1       -0.4536
     15 C         140.6776  141.0280  166.7610 C.ar    1  UNL1        0.1462
     16 C         139.6622  140.4311  167.6900 C.ar    1  UNL1        0.0384
     17 C         139.9166  140.4142  169.1681 C.ar    1  UNL1        0.0154
     18 C         141.1862  140.9942  169.7174 C.ar    1  UNL1        0.0684
     19 CL        141.4405  140.9773  171.1955 Cl      1  UNL1       -0.0814
     20 C         142.2015  141.5911  168.7885 C.ar    1  UNL1        0.0712
     21 CL        143.4711  142.1710  169.3378 Cl      1  UNL1       -0.0813
     22 C         141.9472  141.6080  167.3103 C.ar    1  UNL1        0.0497
@<TRIPOS>BOND
     1    11    12    1
     2    12    10    1
     3    10     1    1
     4     1     2   ar
     5     2     3   ar
     6     3     4    1
     7     3     5   ar
     8     5     8    1
     9     8     9    1
    10     5     6   ar
    11     6     7   ar
    12     7    14    1
    13    14    15    1
    14    15    16   ar
    15    16    17   ar
    16    17    18   ar
    17    18    19    1
    18    18    20   ar
    19    20    21    1
    20    20    22   ar
    21     7     1   ar
    22    22    15   ar
    23    12    13    1
