@<TRIPOS>MOLECULE
*****
 40 44 0 0 0
SMALL
GASTEIGER

@<TRIPOS>ATOM
      1 C         139.3530  141.3166  162.2487 C.2     1  UNL1        0.1077
      2 C         139.3353  141.0150  160.7795 C.2     1  UNL1        0.0757
      3 N         140.1862  140.0459  160.0134 N.am    1  UNL1       -0.2534
      4 C         139.9237  139.9741  158.5383 C.2     1  UNL1        0.2528
      5 O         138.8651  140.8397  157.9219 O.2     1  UNL1       -0.2696
      6 C         141.2650  139.1392  160.5274 C.3     1  UNL1        0.1025
      7 C         141.7592  138.9775  161.9343 C.3     1  UNL1        0.0390
      8 C         142.6322  138.3846  163.0004 C.3     1  UNL1        0.0061
      9 C         142.6102  138.0084  161.1683 C.3     1  UNL1        0.0061
     10 C         141.2968  139.6827  163.1749 C.2     1  UNL1       -0.0022
     11 C         140.2259  140.7237  163.3148 C.2     1  UNL1        0.0845
     12 N         140.1447  141.1137  164.7609 N.2     1  UNL1       -0.2494
     13 C         141.1654  140.3137  165.5148 C.2     1  UNL1        0.0630
     14 C         141.5384  140.2763  166.9672 C.3     1  UNL1        0.0717
     15 C         142.6234  139.3546  167.4393 C.2     1  UNL1       -0.0198
     16 C         143.3355  138.4702  166.4591 C.2     1  UNL1       -0.0042
     17 C         142.9625  138.5076  165.0067 C.2     1  UNL1        0.0006
     18 C         141.8774  139.4293  164.5346 C.2     1  UNL1        0.0114
     19 C         140.7199  139.0366  157.6796 C.ar    1  UNL1        0.0541
     20 C         142.1258  139.3865  157.2910 C.ar    1  UNL1        0.0076
     21 C         142.9219  138.4490  156.4323 C.ar    1  UNL1        0.0370
     22 C         142.3121  137.1618  155.9622 C.ar    1  UNL1        0.1386
     23 C         140.9062  136.8120  156.3507 C.ar    1  UNL1        0.0370
     24 C         140.1100  137.7494  157.2094 C.ar    1  UNL1        0.0076
     25 O         143.1083  136.2244  155.1035 O.3     1  UNL1       -0.4754
     26 C         142.4218  135.4056  154.0507 C.3     1  UNL1        0.2068
     27 C         142.2175  133.9343  154.2595 C.3     1  UNL1        0.0646
     28 C         141.8477  133.4137  155.6168 C.3     1  UNL1        0.0761
     29 N         142.8735  132.7103  156.4553 N.3     1  UNL1       -0.2683
     30 C         143.9175  133.5028  157.1846 C.3     1  UNL1        0.1046
     31 C         144.9432  132.7994  158.0232 C.3     1  UNL1        0.1595
     32 O         144.9250  131.3035  158.1324 O.3     1  UNL1       -0.3508
     33 C         143.8809  130.5110  157.4030 C.3     1  UNL1        0.1595
     34 C         142.8552  131.2144  156.5645 C.3     1  UNL1        0.1046
     35 C         138.3674  142.3475  162.7134 C.2     1  UNL1        0.3438
     36 O         136.9991  141.9281  163.1627 O.2     1  UNL1       -0.2448
     37 O         138.7502  143.7978  162.7288 O.3     1  UNL1       -0.4491
     38 C         140.8496  144.6971  163.9673 C.3     1  UNL1        0.0473
     39 C         139.3805  144.3941  163.9524 C.3     1  UNL1        0.1694
     40 C         138.5420  144.6874  165.1610 C.3     1  UNL1        0.0473
@<TRIPOS>BOND
     1    38    39    1
     2    39    40    1
     3    39    37    1
     4    37    35    1
     5    35    36    2
     6    35     1    1
     7     1     2    2
     8     2     3    1
     9     3     4   am
    10     4     5    2
    11     4    19    1
    12    19    20   ar
    13    20    21   ar
    14    21    22   ar
    15    22    25    1
    16    25    26    1
    17    26    27    1
    18    27    28    1
    19    28    29    1
    20    29    30    1
    21    30    31    1
    22    31    32    1
    23    32    33    1
    24    33    34    1
    25    22    23   ar
    26    23    24   ar
    27     3     6    1
    28     6     7    1
    29     7     8    1
    30     7     9    1
    31     7    10    1
    32    10    11    2
    33    11    12    1
    34    12    13    2
    35    13    14    1
    36    14    15    1
    37    15    16    2
    38    16    17    1
    39    17    18    2
    40    11     1    1
    41    18    13    1
    42    24    19   ar
    43    18    10    1
    44    34    29    1
@<TRIPOS>MOLECULE
*****
 40 44 0 0 0
SMALL
GASTEIGER

@<TRIPOS>ATOM
      1 C         141.0394  143.2083  162.9228 C.2     1  UNL1        0.1077
      2 C         140.8895  142.8276  161.4797 C.2     1  UNL1        0.0757
      3 N         141.1121  141.4906  160.8371 N.am    1  UNL1       -0.2534
      4 C         140.8760  141.4325  159.3569 C.2     1  UNL1        0.2528
      5 O         140.4455  142.6643  158.6172 O.2     1  UNL1       -0.2696
      6 C         141.5396  140.2041  161.4790 C.3     1  UNL1        0.1025
      7 C         141.8501  139.9367  162.9219 C.3     1  UNL1        0.0390
      8 C         142.2597  139.0744  164.0789 C.3     1  UNL1        0.0061
      9 C         142.0728  138.5997  162.2794 C.3     1  UNL1        0.0061
     10 C         141.8098  140.8900  164.0794 C.2     1  UNL1       -0.0022
     11 C         141.4490  142.3459  164.0798 C.2     1  UNL1        0.0845
     12 N         141.5620  142.8511  165.4876 N.2     1  UNL1       -0.2494
     13 C         141.9927  141.7074  166.3574 C.2     1  UNL1        0.0630
     14 C         142.2653  141.6130  167.8293 C.3     1  UNL1        0.0717
     15 C         142.6909  140.3066  168.4310 C.2     1  UNL1       -0.0198
     16 C         142.8440  139.0945  167.5607 C.2     1  UNL1       -0.0042
     17 C         142.5715  139.1889  166.0887 C.2     1  UNL1        0.0006
     18 C         142.1458  140.4953  165.4870 C.2     1  UNL1        0.0114
     19 C         141.0704  140.1425  158.6165 C.ar    1  UNL1        0.0541
     20 C         139.8947  139.2543  158.3359 C.ar    1  UNL1        0.0076
     21 C         140.0891  137.9643  157.5954 C.ar    1  UNL1        0.0370
     22 C         141.4592  137.5626  157.1357 C.ar    1  UNL1        0.1386
     23 C         142.6349  138.4508  157.4164 C.ar    1  UNL1        0.0370
     24 C         142.4405  139.7408  158.1568 C.ar    1  UNL1        0.0076
     25 O         141.6536  136.2727  156.3953 O.3     1  UNL1       -0.4754
     26 C         143.0001  135.9267  155.8321 C.3     1  UNL1        0.2068
     27 C         143.7796  134.7794  156.4029 C.3     1  UNL1        0.0646
     28 C         143.0800  133.7230  157.2058 C.3     1  UNL1        0.0761
     29 N         142.5530  132.4926  156.5288 N.3     1  UNL1       -0.2683
     30 C         141.4659  132.6089  155.5019 C.3     1  UNL1        0.1046
     31 C         140.9388  131.3785  154.8249 C.3     1  UNL1        0.1595
     32 O         141.4988  130.0317  155.1749 O.3     1  UNL1       -0.3508
     33 C         142.5860  129.9154  156.2019 C.3     1  UNL1        0.1595
     34 C         143.1130  131.1458  156.8788 C.3     1  UNL1        0.1046
     35 C         140.7402  144.6406  163.2526 C.2     1  UNL1        0.3438
     36 O         141.8623  145.6216  163.4217 O.2     1  UNL1       -0.2448
     37 O         139.3188  145.0921  163.4132 O.3     1  UNL1       -0.4491
     38 C         137.5919  143.2996  164.1580 C.3     1  UNL1        0.0473
     39 C         138.4546  144.4843  164.4779 C.3     1  UNL1        0.1694
     40 C         138.4531  145.0610  165.8626 C.3     1  UNL1        0.0473
@<TRIPOS>BOND
     1    38    39    1
     2    39    40    1
     3    39    37    1
     4    37    35    1
     5    35    36    2
     6    35     1    1
     7     1     2    2
     8     2     3    1
     9     3     4   am
    10     4     5    2
    11     4    19    1
    12    19    20   ar
    13    20    21   ar
    14    21    22   ar
    15    22    25    1
    16    25    26    1
    17    26    27    1
    18    27    28    1
    19    28    29    1
    20    29    30    1
    21    30    31    1
    22    31    32    1
    23    32    33    1
    24    33    34    1
    25    22    23   ar
    26    23    24   ar
    27     3     6    1
    28     6     7    1
    29     7     8    1
    30     7     9    1
    31     7    10    1
    32    10    11    2
    33    11    12    1
    34    12    13    2
    35    13    14    1
    36    14    15    1
    37    15    16    2
    38    16    17    1
    39    17    18    2
    40    11     1    1
    41    18    13    1
    42    24    19   ar
    43    18    10    1
    44    34    29    1
@<TRIPOS>MOLECULE
*****
 40 44 0 0 0
SMALL
GASTEIGER

@<TRIPOS>ATOM
      1 C         141.2959  143.2755  162.6602 C.2     1  UNL1        0.1077
      2 C         141.0588  143.3158  161.1796 C.2     1  UNL1        0.0757
      3 N         140.1430  142.4602  160.3555 N.am    1  UNL1       -0.2534
      4 C         140.1304  142.7500  158.8838 C.2     1  UNL1        0.2528
      5 O         140.9992  143.8383  158.3264 O.2     1  UNL1       -0.2696
      6 C         139.2380  141.3530  160.8085 C.3     1  UNL1        0.1025
      7 C         139.0254  140.8280  162.1974 C.3     1  UNL1        0.0390
      8 C         138.4052  139.9222  163.2196 C.3     1  UNL1        0.0061
      9 C         138.1095  139.9723  161.3734 C.3     1  UNL1        0.0061
     10 C         139.6652  141.2805  163.4765 C.2     1  UNL1       -0.0022
     11 C         140.6757  142.3698  163.6824 C.2     1  UNL1        0.0845
     12 N         140.9999  142.4306  165.1457 N.2     1  UNL1       -0.2494
     13 C         140.1898  141.3790  165.8441 C.2     1  UNL1        0.0630
     14 C         140.0966  140.9769  167.2862 C.3     1  UNL1        0.0717
     15 C         139.1786  139.8639  167.6966 C.2     1  UNL1       -0.0198
     16 C         138.3538  139.1531  166.6650 C.2     1  UNL1       -0.0042
     17 C         138.4469  139.5552  165.2229 C.2     1  UNL1        0.0006
     18 C         139.3649  140.6682  164.8125 C.2     1  UNL1        0.0114
     19 C         139.2490  141.9516  157.9697 C.ar    1  UNL1        0.0541
     20 C         137.8827  142.4582  157.6139 C.ar    1  UNL1        0.0076
     21 C         137.0013  141.6598  156.6997 C.ar    1  UNL1        0.0370
     22 C         137.4863  140.3548  156.1413 C.ar    1  UNL1        0.1386
     23 C         138.8525  139.8482  156.4971 C.ar    1  UNL1        0.0370
     24 C         139.7339  140.6466  157.4113 C.ar    1  UNL1        0.0076
     25 O         136.6049  139.5564  155.2272 O.3     1  UNL1       -0.4754
     26 C         135.2292  140.0508  154.8911 C.3     1  UNL1        0.2068
     27 C         134.0504  139.5960  155.6998 C.3     1  UNL1        0.0646
     28 C         132.9928  140.5803  156.1029 C.3     1  UNL1        0.0761
     29 N         131.6627  140.0923  156.5956 N.3     1  UNL1       -0.2683
     30 C         131.5982  139.0309  157.6534 C.3     1  UNL1        0.1046
     31 C         130.2681  138.5429  158.1461 C.3     1  UNL1        0.1595
     32 O         129.0025  139.1163  157.5808 O.3     1  UNL1       -0.3508
     33 C         129.0671  140.1778  156.5229 C.3     1  UNL1        0.1595
     34 C         130.3971  140.6658  156.0303 C.3     1  UNL1        0.1046
     35 C         142.2838  144.2730  163.1885 C.2     1  UNL1        0.3438
     36 O         141.8010  145.5061  163.8930 O.2     1  UNL1       -0.2448
     37 O         143.7547  144.0373  163.0122 O.3     1  UNL1       -0.4491
     38 C         145.2474  141.9544  163.4402 C.3     1  UNL1        0.0473
     39 C         144.4894  143.1388  163.9624 C.3     1  UNL1        0.1694
     40 C         144.4662  143.4246  165.4347 C.3     1  UNL1        0.0473
@<TRIPOS>BOND
     1    38    39    1
     2    39    40    1
     3    39    37    1
     4    37    35    1
     5    35    36    2
     6    35     1    1
     7     1     2    2
     8     2     3    1
     9     3     4   am
    10     4     5    2
    11     4    19    1
    12    19    20   ar
    13    20    21   ar
    14    21    22   ar
    15    22    25    1
    16    25    26    1
    17    26    27    1
    18    27    28    1
    19    28    29    1
    20    29    30    1
    21    30    31    1
    22    31    32    1
    23    32    33    1
    24    33    34    1
    25    22    23   ar
    26    23    24   ar
    27     3     6    1
    28     6     7    1
    29     7     8    1
    30     7     9    1
    31     7    10    1
    32    10    11    2
    33    11    12    1
    34    12    13    2
    35    13    14    1
    36    14    15    1
    37    15    16    2
    38    16    17    1
    39    17    18    2
    40    11     1    1
    41    18    13    1
    42    24    19   ar
    43    18    10    1
    44    34    29    1
@<TRIPOS>MOLECULE
*****
 40 44 0 0 0
SMALL
GASTEIGER

@<TRIPOS>ATOM
      1 C         139.4228  142.7644  162.4021 C.2     1  UNL1        0.1077
      2 C         140.0442  142.8806  161.0418 C.2     1  UNL1        0.0757
      3 N         140.5660  141.7886  160.1556 N.am    1  UNL1       -0.2534
      4 C         141.1336  142.2332  158.8402 C.2     1  UNL1        0.2528
      5 O         141.1526  143.6906  158.4859 O.2     1  UNL1       -0.2696
      6 C         140.5951  140.3107  160.4107 C.3     1  UNL1        0.1025
      7 C         140.1098  139.5598  161.6151 C.3     1  UNL1        0.0390
      8 C         139.8566  138.3230  162.4252 C.3     1  UNL1        0.0061
      9 C         140.6315  138.4678  160.7290 C.3     1  UNL1        0.0061
     10 C         139.4754  140.1014  162.8619 C.2     1  UNL1       -0.0022
     11 C         139.1697  141.5275  163.2121 C.2     1  UNL1        0.0845
     12 N         138.5354  141.5453  164.5713 N.2     1  UNL1       -0.2494
     13 C         138.4490  140.1302  165.0611 C.2     1  UNL1        0.0630
     14 C         137.9165  139.5389  166.3326 C.3     1  UNL1        0.0717
     15 C         137.9649  138.0552  166.5476 C.2     1  UNL1       -0.0198
     16 C         138.5459  137.1628  165.4912 C.2     1  UNL1       -0.0042
     17 C         139.0784  137.7541  164.2197 C.2     1  UNL1        0.0006
     18 C         139.0300  139.2378  164.0046 C.2     1  UNL1        0.0114
     19 C         141.6821  141.2205  157.8793 C.ar    1  UNL1        0.0541
     20 C         143.1469  140.8973  157.8853 C.ar    1  UNL1        0.0076
     21 C         143.6954  139.8845  156.9243 C.ar    1  UNL1        0.0370
     22 C         142.7792  139.1950  155.9574 C.ar    1  UNL1        0.1386
     23 C         141.3145  139.5182  155.9514 C.ar    1  UNL1        0.0370
     24 C         140.7659  140.5309  156.9123 C.ar    1  UNL1        0.0076
     25 O         143.3278  138.1822  154.9965 O.3     1  UNL1       -0.4754
     26 C         143.9786  136.9335  155.5133 C.3     1  UNL1        0.2068
     27 C         143.2659  136.0766  156.5171 C.3     1  UNL1        0.0646
     28 C         142.7317  134.7345  156.1128 C.3     1  UNL1        0.0761
     29 N         143.5401  133.4972  156.3691 N.3     1  UNL1       -0.2683
     30 C         143.5978  132.4117  155.3355 C.3     1  UNL1        0.1046
     31 C         144.4062  131.1744  155.5918 C.3     1  UNL1        0.1595
     32 O         145.1569  131.0227  156.8815 O.3     1  UNL1       -0.3508
     33 C         145.0991  132.1083  157.9150 C.3     1  UNL1        0.1595
     34 C         144.2908  133.3455  157.6588 C.3     1  UNL1        0.1046
     35 C         138.9985  144.0558  163.0362 C.2     1  UNL1        0.3438
     36 O         137.7635  144.7577  162.5545 O.2     1  UNL1       -0.2448
     37 O         139.8092  144.6453  164.1522 O.3     1  UNL1       -0.4491
     38 C         142.2548  145.2109  163.4820 C.3     1  UNL1        0.0473
     39 C         141.2794  144.3618  164.2420 C.3     1  UNL1        0.1694
     40 C         141.7742  143.2291  165.0918 C.3     1  UNL1        0.0473
@<TRIPOS>BOND
     1    38    39    1
     2    39    40    1
     3    39    37    1
     4    37    35    1
     5    35    36    2
     6    35     1    1
     7     1     2    2
     8     2     3    1
     9     3     4   am
    10     4     5    2
    11     4    19    1
    12    19    20   ar
    13    20    21   ar
    14    21    22   ar
    15    22    25    1
    16    25    26    1
    17    26    27    1
    18    27    28    1
    19    28    29    1
    20    29    30    1
    21    30    31    1
    22    31    32    1
    23    32    33    1
    24    33    34    1
    25    22    23   ar
    26    23    24   ar
    27     3     6    1
    28     6     7    1
    29     7     8    1
    30     7     9    1
    31     7    10    1
    32    10    11    2
    33    11    12    1
    34    12    13    2
    35    13    14    1
    36    14    15    1
    37    15    16    2
    38    16    17    1
    39    17    18    2
    40    11     1    1
    41    18    13    1
    42    24    19   ar
    43    18    10    1
    44    34    29    1
@<TRIPOS>MOLECULE
*****
 40 44 0 0 0
SMALL
GASTEIGER

@<TRIPOS>ATOM
      1 C         143.3589  140.4720  162.6411 C.2     1  UNL1        0.1077
      2 C         143.4943  140.1710  161.1779 C.2     1  UNL1        0.0757
      3 N         142.5244  139.4697  160.2737 N.am    1  UNL1       -0.2534
      4 C         142.9564  139.3223  158.8449 C.2     1  UNL1        0.2528
      5 O         144.2848  139.8613  158.4036 O.2     1  UNL1       -0.2696
      6 C         141.1797  138.8962  160.6095 C.3     1  UNL1        0.1025
      7 C         140.4726  138.8824  161.9323 C.3     1  UNL1        0.0390
      8 C         139.3339  138.5565  162.8528 C.3     1  UNL1        0.0061
      9 C         139.5027  138.1810  161.0282 C.3     1  UNL1        0.0061
     10 C         140.9357  139.4387  163.2462 C.2     1  UNL1       -0.0022
     11 C         142.2203  140.1461  163.5616 C.2     1  UNL1        0.0845
     12 N         142.2063  140.5048  165.0180 N.2     1  UNL1       -0.2494
     13 C         140.9132  140.0191  165.6027 C.2     1  UNL1        0.0630
     14 C         140.3493  140.0917  166.9908 C.3     1  UNL1        0.0717
     15 C         139.0001  139.5053  167.2837 C.2     1  UNL1       -0.0198
     16 C         138.2148  138.8464  166.1887 C.2     1  UNL1       -0.0042
     17 C         138.7787  138.7738  164.8006 C.2     1  UNL1        0.0006
     18 C         140.1279  139.3601  164.5077 C.2     1  UNL1        0.0114
     19 C         142.0600  138.6360  157.8573 C.ar    1  UNL1        0.0541
     20 C         140.8758  139.3607  157.2894 C.ar    1  UNL1        0.0076
     21 C         139.9794  138.6743  156.3017 C.ar    1  UNL1        0.0370
     22 C         140.2672  137.2633  155.8821 C.ar    1  UNL1        0.1386
     23 C         141.4513  136.5386  156.4500 C.ar    1  UNL1        0.0370
     24 C         142.3478  137.2250  157.4376 C.ar    1  UNL1        0.0076
     25 O         139.3707  136.5770  154.8945 O.3     1  UNL1       -0.4754
     26 C         138.9553  137.2860  153.6396 C.3     1  UNL1        0.2068
     27 C         137.5006  137.5140  153.3535 C.3     1  UNL1        0.0646
     28 C         136.5568  137.8334  154.4747 C.3     1  UNL1        0.0761
     29 N         136.1554  139.2550  154.7353 N.3     1  UNL1       -0.2683
     30 C         134.7220  139.5886  155.0251 C.3     1  UNL1        0.1046
     31 C         134.3206  141.0102  155.2857 C.3     1  UNL1        0.1595
     32 O         135.3527  142.0983  155.2565 O.3     1  UNL1       -0.3508
     33 C         136.7862  141.7647  154.9667 C.3     1  UNL1        0.1595
     34 C         137.1875  140.3431  154.7062 C.3     1  UNL1        0.1046
     35 C         144.5151  141.1945  163.2667 C.2     1  UNL1        0.3438
     36 O         145.4790  140.4508  164.1428 O.2     1  UNL1       -0.2448
     37 O         144.7073  142.6609  163.0160 O.3     1  UNL1       -0.4491
     38 C         143.3621  144.8346  163.4802 C.3     1  UNL1        0.0473
     39 C         144.1560  143.6658  163.9837 C.3     1  UNL1        0.1694
     40 C         144.3987  143.5018  165.4548 C.3     1  UNL1        0.0473
@<TRIPOS>BOND
     1    38    39    1
     2    39    40    1
     3    39    37    1
     4    37    35    1
     5    35    36    2
     6    35     1    1
     7     1     2    2
     8     2     3    1
     9     3     4   am
    10     4     5    2
    11     4    19    1
    12    19    20   ar
    13    20    21   ar
    14    21    22   ar
    15    22    25    1
    16    25    26    1
    17    26    27    1
    18    27    28    1
    19    28    29    1
    20    29    30    1
    21    30    31    1
    22    31    32    1
    23    32    33    1
    24    33    34    1
    25    22    23   ar
    26    23    24   ar
    27     3     6    1
    28     6     7    1
    29     7     8    1
    30     7     9    1
    31     7    10    1
    32    10    11    2
    33    11    12    1
    34    12    13    2
    35    13    14    1
    36    14    15    1
    37    15    16    2
    38    16    17    1
    39    17    18    2
    40    11     1    1
    41    18    13    1
    42    24    19   ar
    43    18    10    1
    44    34    29    1
@<TRIPOS>MOLECULE
*****
 40 44 0 0 0
SMALL
GASTEIGER

@<TRIPOS>ATOM
      1 C         141.9002  142.1447  162.2004 C.2     1  UNL1        0.1077
      2 C         142.1311  141.7877  160.7619 C.2     1  UNL1        0.0757
      3 N         141.6406  140.5889  160.0054 N.am    1  UNL1       -0.2534
      4 C         142.0462  140.5187  158.5630 C.2     1  UNL1        0.2528
      5 O         142.8898  141.6067  157.9674 O.2     1  UNL1       -0.2696
      6 C         140.7980  139.4510  160.5006 C.3     1  UNL1        0.1025
      7 C         140.2379  139.2308  161.8745 C.3     1  UNL1        0.0390
      8 C         139.4594  138.4771  162.9118 C.3     1  UNL1        0.0061
      9 C         139.7473  138.0320  161.1181 C.3     1  UNL1        0.0061
     10 C         140.3819  140.0942  163.0927 C.2     1  UNL1       -0.0022
     11 C         141.1217  141.3910  163.2377 C.2     1  UNL1        0.0845
     12 N         140.9645  141.8584  164.6543 N.2     1  UNL1       -0.2494
     13 C         140.1275  140.8506  165.3848 C.2     1  UNL1        0.0630
     14 C         139.6468  140.7848  166.8041 C.3     1  UNL1        0.0717
     15 C         138.8059  139.6287  167.2583 C.2     1  UNL1       -0.0198
     16 C         138.4459  138.5383  166.2932 C.2     1  UNL1       -0.0042
     17 C         138.9267  138.6041  164.8739 C.2     1  UNL1        0.0006
     18 C         139.7675  139.7602  164.4197 C.2     1  UNL1        0.0114
     19 C         141.6084  139.3606  157.7162 C.ar    1  UNL1        0.0541
     20 C         142.4502  138.1210  157.6478 C.ar    1  UNL1        0.0076
     21 C         142.0124  136.9629  156.8010 C.ar    1  UNL1        0.0370
     22 C         140.7327  137.0443  156.0227 C.ar    1  UNL1        0.1386
     23 C         139.8909  138.2839  156.0912 C.ar    1  UNL1        0.0370
     24 C         140.3287  139.4421  156.9380 C.ar    1  UNL1        0.0076
     25 O         140.2949  135.8862  155.1760 O.3     1  UNL1       -0.4754
     26 C         141.2283  135.3099  154.1530 C.3     1  UNL1        0.2068
     27 C         142.0135  134.0711  154.4676 C.3     1  UNL1        0.0646
     28 C         141.6895  133.2687  155.6928 C.3     1  UNL1        0.0761
     29 N         142.7872  132.5878  156.4555 N.3     1  UNL1       -0.2683
     30 C         143.8141  133.4048  157.1820 C.3     1  UNL1        0.1046
     31 C         144.9118  132.7239  157.9446 C.3     1  UNL1        0.1595
     32 O         144.9825  131.2261  157.9807 O.3     1  UNL1       -0.3508
     33 C         143.9555  130.4091  157.2541 C.3     1  UNL1        0.1595
     34 C         142.8579  131.0899  156.4915 C.3     1  UNL1        0.1046
     35 C         142.5311  143.4246  162.6627 C.2     1  UNL1        0.3438
     36 O         141.6827  144.6413  162.8857 O.2     1  UNL1       -0.2448
     37 O         144.0106  143.4877  162.9021 O.3     1  UNL1       -0.4491
     38 C         145.2891  141.4986  163.9786 C.3     1  UNL1        0.0473
     39 C         144.6037  142.8264  164.1107 C.3     1  UNL1        0.1694
     40 C         144.5114  143.4926  165.4514 C.3     1  UNL1        0.0473
@<TRIPOS>BOND
     1    38    39    1
     2    39    40    1
     3    39    37    1
     4    37    35    1
     5    35    36    2
     6    35     1    1
     7     1     2    2
     8     2     3    1
     9     3     4   am
    10     4     5    2
    11     4    19    1
    12    19    20   ar
    13    20    21   ar
    14    21    22   ar
    15    22    25    1
    16    25    26    1
    17    26    27    1
    18    27    28    1
    19    28    29    1
    20    29    30    1
    21    30    31    1
    22    31    32    1
    23    32    33    1
    24    33    34    1
    25    22    23   ar
    26    23    24   ar
    27     3     6    1
    28     6     7    1
    29     7     8    1
    30     7     9    1
    31     7    10    1
    32    10    11    2
    33    11    12    1
    34    12    13    2
    35    13    14    1
    36    14    15    1
    37    15    16    2
    38    16    17    1
    39    17    18    2
    40    11     1    1
    41    18    13    1
    42    24    19   ar
    43    18    10    1
    44    34    29    1
@<TRIPOS>MOLECULE
*****
 40 44 0 0 0
SMALL
GASTEIGER

@<TRIPOS>ATOM
      1 C         141.6282  143.4518  162.8111 C.2     1  UNL1        0.1077
      2 C         141.7015  143.2967  161.3209 C.2     1  UNL1        0.0757
      3 N         142.1093  142.0925  160.5249 N.am    1  UNL1       -0.2534
      4 C         142.0778  142.2565  159.0342 C.2     1  UNL1        0.2528
      5 O         141.6569  143.5644  158.4323 O.2     1  UNL1       -0.2696
      6 C         142.5445  140.7460  161.0224 C.3     1  UNL1        0.1025
      7 C         142.6793  140.2711  162.4388 C.3     1  UNL1        0.0390
      8 C         142.9956  139.2603  163.5010 C.3     1  UNL1        0.0061
      9 C         143.0871  139.0669  161.6428 C.3     1  UNL1        0.0061
     10 C         142.4123  141.0254  163.7076 C.2     1  UNL1       -0.0022
     11 C         141.9445  142.4409  163.8732 C.2     1  UNL1        0.0845
     12 N         141.8299  142.7223  165.3421 N.2     1  UNL1       -0.2494
     13 C         142.2269  141.4807  166.0844 C.2     1  UNL1        0.0630
     14 C         142.3071  141.1697  167.5495 C.3     1  UNL1        0.0717
     15 C         142.7473  139.8098  168.0045 C.2     1  UNL1       -0.0198
     16 C         143.1072  138.7611  166.9943 C.2     1  UNL1       -0.0042
     17 C         143.0270  139.0721  165.5291 C.2     1  UNL1        0.0006
     18 C         142.5868  140.4320  165.0741 C.2     1  UNL1        0.0114
     19 C         142.4672  141.1126  158.1454 C.ar    1  UNL1        0.0541
     20 C         143.8100  141.1056  157.4770 C.ar    1  UNL1        0.0076
     21 C         144.1993  139.9617  156.5882 C.ar    1  UNL1        0.0370
     22 C         143.2459  138.8250  156.3679 C.ar    1  UNL1        0.1386
     23 C         141.9031  138.8320  157.0363 C.ar    1  UNL1        0.0370
     24 C         141.5138  139.9759  157.9251 C.ar    1  UNL1        0.0076
     25 O         143.6353  137.6811  155.4791 O.3     1  UNL1       -0.4754
     26 C         142.7596  137.2977  154.3231 C.3     1  UNL1        0.2068
     27 C         141.9640  136.0271  154.3740 C.3     1  UNL1        0.0646
     28 C         141.5966  135.4247  155.6977 C.3     1  UNL1        0.0761
     29 N         142.3459  134.2316  156.2126 N.3     1  UNL1       -0.2683
     30 C         141.9545  132.8525  155.7714 C.3     1  UNL1        0.1046
     31 C         142.7038  131.6594  156.2863 C.3     1  UNL1        0.1595
     32 O         143.8444  131.8454  157.2425 O.3     1  UNL1       -0.3508
     33 C         144.2357  133.2246  157.6837 C.3     1  UNL1        0.1595
     34 C         143.4865  134.4177  157.1689 C.3     1  UNL1        0.1046
     35 C         141.1791  144.7953  163.3043 C.2     1  UNL1        0.3438
     36 O         142.1660  145.7294  163.9394 O.2     1  UNL1       -0.2448
     37 O         139.7430  145.2047  163.1624 O.3     1  UNL1       -0.4491
     38 C         137.7218  143.5947  163.4315 C.3     1  UNL1        0.0473
     39 C         138.6935  144.5705  164.0262 C.3     1  UNL1        0.1694
     40 C         138.6156  144.9120  165.4847 C.3     1  UNL1        0.0473
@<TRIPOS>BOND
     1    38    39    1
     2    39    40    1
     3    39    37    1
     4    37    35    1
     5    35    36    2
     6    35     1    1
     7     1     2    2
     8     2     3    1
     9     3     4   am
    10     4     5    2
    11     4    19    1
    12    19    20   ar
    13    20    21   ar
    14    21    22   ar
    15    22    25    1
    16    25    26    1
    17    26    27    1
    18    27    28    1
    19    28    29    1
    20    29    30    1
    21    30    31    1
    22    31    32    1
    23    32    33    1
    24    33    34    1
    25    22    23   ar
    26    23    24   ar
    27     3     6    1
    28     6     7    1
    29     7     8    1
    30     7     9    1
    31     7    10    1
    32    10    11    2
    33    11    12    1
    34    12    13    2
    35    13    14    1
    36    14    15    1
    37    15    16    2
    38    16    17    1
    39    17    18    2
    40    11     1    1
    41    18    13    1
    42    24    19   ar
    43    18    10    1
    44    34    29    1
@<TRIPOS>MOLECULE
*****
 40 44 0 0 0
SMALL
GASTEIGER

@<TRIPOS>ATOM
      1 C         142.0825  138.1212  157.6219 C.2     1  UNL1        0.1077
      2 C         142.6901  137.9131  158.9774 C.2     1  UNL1        0.0757
      3 N         142.1818  138.3746  160.3110 N.am    1  UNL1       -0.2534
      4 C         143.0267  138.0034  161.4936 C.2     1  UNL1        0.2528
      5 O         144.2901  137.2194  161.2961 O.2     1  UNL1       -0.2696
      6 C         140.9402  139.1581  160.6185 C.3     1  UNL1        0.1025
      7 C         139.9004  139.6738  159.6683 C.3     1  UNL1        0.0390
      8 C         138.6343  140.3948  159.3116 C.3     1  UNL1        0.0061
      9 C         139.3920  140.1353  161.0019 C.3     1  UNL1        0.0061
     10 C         139.8453  139.5331  158.1759 C.2     1  UNL1       -0.0022
     11 C         140.8164  138.8422  157.2652 C.2     1  UNL1        0.0845
     12 N         140.3129  138.9817  155.8591 N.2     1  UNL1       -0.2494
     13 C         139.0307  139.7588  155.9008 C.2     1  UNL1        0.0630
     14 C         138.0889  140.2002  154.8200 C.3     1  UNL1        0.0717
     15 C         136.8581  140.9824  155.1710 C.2     1  UNL1       -0.0198
     16 C         136.5691  141.3232  156.6029 C.2     1  UNL1       -0.0042
     17 C         137.5108  140.8819  157.6837 C.2     1  UNL1        0.0006
     18 C         138.7416  140.0997  157.3327 C.2     1  UNL1        0.0114
     19 C         142.6081  138.4162  162.8736 C.ar    1  UNL1        0.0541
     20 C         141.5692  137.6242  163.6106 C.ar    1  UNL1        0.0076
     21 C         141.1506  138.0370  164.9906 C.ar    1  UNL1        0.0370
     22 C         141.7710  139.2419  165.6335 C.ar    1  UNL1        0.1386
     23 C         142.8099  140.0339  164.8965 C.ar    1  UNL1        0.0370
     24 C         143.2284  139.6211  163.5164 C.ar    1  UNL1        0.0076
     25 O         141.3524  139.6547  167.0135 O.3     1  UNL1       -0.4754
     26 C         140.2052  140.6036  167.1969 C.3     1  UNL1        0.2068
     27 C         139.6904  141.3924  166.0296 C.3     1  UNL1        0.0646
     28 C         140.1473  142.8056  165.8193 C.3     1  UNL1        0.0761
     29 N         139.6250  143.5977  164.6575 N.3     1  UNL1       -0.2683
     30 C         138.2026  143.4279  164.2128 C.3     1  UNL1        0.1046
     31 C         137.6803  144.2200  163.0509 C.3     1  UNL1        0.1595
     32 O         138.5806  145.1818  162.3337 O.3     1  UNL1       -0.3508
     33 C         140.0031  145.3515  162.7784 C.3     1  UNL1        0.1595
     34 C         140.5253  144.5595  163.9402 C.3     1  UNL1        0.1046
     35 C         142.8412  137.5301  156.4708 C.2     1  UNL1        0.3438
     36 O         144.1982  138.0612  156.1151 O.2     1  UNL1       -0.2448
     37 O         142.2430  136.4079  155.6754 O.3     1  UNL1       -0.4491
     38 C         143.4373  134.6698  157.1929 C.3     1  UNL1        0.0473
     39 C         142.4474  134.9873  156.1116 C.3     1  UNL1        0.1694
     40 C         141.6619  133.8842  155.4664 C.3     1  UNL1        0.0473
@<TRIPOS>BOND
     1    38    39    1
     2    39    40    1
     3    39    37    1
     4    37    35    1
     5    35    36    2
     6    35     1    1
     7     1     2    2
     8     2     3    1
     9     3     4   am
    10     4     5    2
    11     4    19    1
    12    19    20   ar
    13    20    21   ar
    14    21    22   ar
    15    22    25    1
    16    25    26    1
    17    26    27    1
    18    27    28    1
    19    28    29    1
    20    29    30    1
    21    30    31    1
    22    31    32    1
    23    32    33    1
    24    33    34    1
    25    22    23   ar
    26    23    24   ar
    27     3     6    1
    28     6     7    1
    29     7     8    1
    30     7     9    1
    31     7    10    1
    32    10    11    2
    33    11    12    1
    34    12    13    2
    35    13    14    1
    36    14    15    1
    37    15    16    2
    38    16    17    1
    39    17    18    2
    40    11     1    1
    41    18    13    1
    42    24    19   ar
    43    18    10    1
    44    34    29    1
@<TRIPOS>MOLECULE
*****
 40 44 0 0 0
SMALL
GASTEIGER

@<TRIPOS>ATOM
      1 C         143.2518  140.2750  158.0646 C.2     1  UNL1        0.1077
      2 C         143.4640  139.4344  159.2887 C.2     1  UNL1        0.0757
      3 N         143.0402  139.7138  160.7001 N.am    1  UNL1       -0.2534
      4 C         143.4053  138.6656  161.7090 C.2     1  UNL1        0.2528
      5 O         144.1476  137.4356  161.2774 O.2     1  UNL1       -0.2696
      6 C         142.2994  140.9029  161.2362 C.3     1  UNL1        0.1025
      7 C         141.7996  142.1063  160.4931 C.3     1  UNL1        0.0390
      8 C         141.1111  143.4340  160.3783 C.3     1  UNL1        0.0061
      9 C         141.3757  142.3858  161.9046 C.3     1  UNL1        0.0061
     10 C         141.9170  142.4178  159.0305 C.2     1  UNL1       -0.0022
     11 C         142.5633  141.6027  157.9497 C.2     1  UNL1        0.0845
     12 N         142.4157  142.3479  156.6563 N.2     1  UNL1       -0.2494
     13 C         141.6782  143.6234  156.9377 C.2     1  UNL1        0.0630
     14 C         141.2475  144.7511  156.0473 C.3     1  UNL1        0.0717
     15 C         140.5086  145.9220  156.6243 C.2     1  UNL1       -0.0198
     16 C         140.2004  145.9651  158.0917 C.2     1  UNL1       -0.0042
     17 C         140.6311  144.8375  158.9820 C.2     1  UNL1        0.0006
     18 C         141.3700  143.6666  158.4050 C.2     1  UNL1        0.0114
     19 C         143.0282  138.8472  163.1494 C.ar    1  UNL1        0.0541
     20 C         141.8137  138.1597  163.6992 C.ar    1  UNL1        0.0076
     21 C         141.4366  138.3413  165.1396 C.ar    1  UNL1        0.0370
     22 C         142.2740  139.2106  166.0302 C.ar    1  UNL1        0.1386
     23 C         143.4884  139.8981  165.4804 C.ar    1  UNL1        0.0370
     24 C         143.8656  139.7165  164.0400 C.ar    1  UNL1        0.0076
     25 O         141.8968  139.3922  167.4706 O.3     1  UNL1       -0.4754
     26 C         141.1690  140.6298  167.9050 C.3     1  UNL1        0.2068
     27 C         139.9372  141.0717  167.1718 C.3     1  UNL1        0.0646
     28 C         140.0380  142.1102  166.0942 C.3     1  UNL1        0.0761
     29 N         139.0980  142.0723  164.9258 N.3     1  UNL1       -0.2683
     30 C         138.5985  140.7563  164.4075 C.3     1  UNL1        0.1046
     31 C         137.6586  140.7184  163.2391 C.3     1  UNL1        0.1595
     32 O         137.2181  141.9964  162.5890 O.3     1  UNL1       -0.3508
     33 C         137.7176  143.3124  163.1074 C.3     1  UNL1        0.1595
     34 C         138.6575  143.3503  164.2757 C.3     1  UNL1        0.1046
     35 C         143.8006  139.7137  156.7864 C.2     1  UNL1        0.3438
     36 O         142.8907  139.0071  155.8258 O.2     1  UNL1       -0.2448
     37 O         145.2594  139.8591  156.4688 O.3     1  UNL1       -0.4491
     38 C         145.5906  141.3007  154.3329 C.3     1  UNL1        0.0473
     39 C         145.7627  141.1095  155.8107 C.3     1  UNL1        0.1694
     40 C         146.4381  142.1688  156.6303 C.3     1  UNL1        0.0473
@<TRIPOS>BOND
     1    38    39    1
     2    39    40    1
     3    39    37    1
     4    37    35    1
     5    35    36    2
     6    35     1    1
     7     1     2    2
     8     2     3    1
     9     3     4   am
    10     4     5    2
    11     4    19    1
    12    19    20   ar
    13    20    21   ar
    14    21    22   ar
    15    22    25    1
    16    25    26    1
    17    26    27    1
    18    27    28    1
    19    28    29    1
    20    29    30    1
    21    30    31    1
    22    31    32    1
    23    32    33    1
    24    33    34    1
    25    22    23   ar
    26    23    24   ar
    27     3     6    1
    28     6     7    1
    29     7     8    1
    30     7     9    1
    31     7    10    1
    32    10    11    2
    33    11    12    1
    34    12    13    2
    35    13    14    1
    36    14    15    1
    37    15    16    2
    38    16    17    1
    39    17    18    2
    40    11     1    1
    41    18    13    1
    42    24    19   ar
    43    18    10    1
    44    34    29    1
