@<TRIPOS>MOLECULE
*****
 28 31 0 0 0
SMALL
GASTEIGER

@<TRIPOS>ATOM
      1 C         137.3279  140.9792  162.8257 C.3     1  UNL1        0.0233
      2 C         138.3445  141.6033  163.7351 C.3     1  UNL1        0.0956
      3 C         138.6017  141.0129  165.0899 C.3     1  UNL1        0.1135
      4 N         139.6183  141.6370  165.9993 N.am    1  UNL1       -0.2726
      5 C         139.8754  141.0465  167.3540 C.2     1  UNL1        0.2491
      6 O         139.1160  139.8321  167.7994 O.2     1  UNL1       -0.2699
      7 C         140.3777  142.8514  165.5540 C.3     1  UNL1        0.1152
      8 C         140.1206  143.4418  164.1993 C.3     1  UNL1        0.1153
      9 N         139.1040  142.8177  163.2899 N.am    1  UNL1       -0.2716
     10 C         138.8468  143.4081  161.9351 C.2     1  UNL1        0.2883
     11 O         137.8302  142.7840  161.0257 O.2     1  UNL1       -0.2664
     12 C         140.8920  141.6706  168.2634 C.ar    1  UNL1        0.0536
     13 C         142.3053  141.1681  168.2655 C.ar    1  UNL1        0.0045
     14 C         143.3219  141.7922  169.1749 C.ar    1  UNL1        0.0001
     15 C         142.9252  142.9189  170.0823 C.ar    1  UNL1        0.0000
     16 C         141.5119  143.4214  170.0802 C.ar    1  UNL1        0.0001
     17 C         140.4953  142.7973  169.1708 C.ar    1  UNL1        0.0045
     18 C         139.6063  144.6227  161.4898 C.2     1  UNL1        0.2502
     19 O         139.2456  145.9735  162.0329 O.2     1  UNL1       -0.2817
     20 C         140.7263  144.4862  160.5014 C.2     1  UNL1        0.0639
     21 C         140.9855  145.3896  159.3323 C.2     1  UNL1        0.1019
     22 N         142.2031  144.8840  158.6170 N.2     1  UNL1       -0.2460
     23 C         142.6965  143.6682  159.3439 C.2     1  UNL1        0.0837
     24 C         143.8589  142.7532  159.0957 C.3     1  UNL1        0.1708
     25 N         144.1085  141.5924  160.0122 N.2     1  UNL1       -0.2624
     26 C         143.1957  141.3465  161.1769 C.2     1  UNL1        0.0936
     27 C         142.0333  142.2615  161.4250 C.2     1  UNL1        0.0216
     28 C         141.7837  143.4223  160.5085 C.2     1  UNL1        0.0218
@<TRIPOS>BOND
     1     2     1    1
     2     2     3    1
     3     3     4    1
     4     4     5   am
     5     5     6    2
     6     5    12    1
     7    12    13   ar
     8    13    14   ar
     9    14    15   ar
    10    15    16   ar
    11    16    17   ar
    12     4     7    1
    13     7     8    1
    14     8     9    1
    15     9    10   am
    16    10    11    2
    17    10    18    1
    18    18    19    2
    19    18    20    1
    20    20    21    2
    21    21    22    1
    22    22    23    2
    23    23    24    1
    24    24    25    1
    25    25    26    2
    26    26    27    1
    27    27    28    2
    28     9     2    1
    29    28    20    1
    30    17    12   ar
    31    28    23    1
@<TRIPOS>MOLECULE
*****
 28 31 0 0 0
SMALL
GASTEIGER

@<TRIPOS>ATOM
      1 C         137.2851  140.9774  162.6063 C.3     1  UNL1        0.0233
      2 C         138.1953  141.3395  163.7422 C.3     1  UNL1        0.0956
      3 C         138.2680  140.4596  164.9549 C.3     1  UNL1        0.1135
      4 N         139.1783  140.8217  166.0908 N.am    1  UNL1       -0.2726
      5 C         139.2509  139.9418  167.3034 C.2     1  UNL1        0.2491
      6 O         138.4134  138.6997  167.3801 O.2     1  UNL1       -0.2699
      7 C         140.0158  142.0637  166.0141 C.3     1  UNL1        0.1152
      8 C         139.9431  142.9436  164.8015 C.3     1  UNL1        0.1153
      9 N         139.0329  142.5815  163.6656 N.am    1  UNL1       -0.2716
     10 C         138.9602  143.4614  162.4529 C.2     1  UNL1        0.2883
     11 O         138.0500  143.0993  161.3170 O.2     1  UNL1       -0.2664
     12 C         140.1611  140.3039  168.4393 C.ar    1  UNL1        0.0536
     13 C         141.5978  139.8734  168.4158 C.ar    1  UNL1        0.0045
     14 C         142.5080  140.2356  169.5517 C.ar    1  UNL1        0.0001
     15 C         141.9816  141.0282  170.7113 C.ar    1  UNL1        0.0000
     16 C         140.5449  141.4586  170.7348 C.ar    1  UNL1        0.0001
     17 C         139.6347  141.0965  169.5989 C.ar    1  UNL1        0.0045
     18 C         139.7978  144.7035  162.3762 C.2     1  UNL1        0.2502
     19 O         139.1541  146.0247  162.0766 O.2     1  UNL1       -0.2817
     20 C         141.2790  144.6242  162.5991 C.2     1  UNL1        0.0639
     21 C         142.0672  145.4363  163.5835 C.2     1  UNL1        0.1019
     22 N         143.5074  145.0328  163.4695 N.2     1  UNL1       -0.2460
     23 C         143.6093  143.9713  162.4147 C.2     1  UNL1        0.0837
     24 C         144.7782  143.2020  161.8745 C.3     1  UNL1        0.1708
     25 N         144.5699  142.1802  160.7964 N.2     1  UNL1       -0.2624
     26 C         143.1927  141.9276  160.2584 C.2     1  UNL1        0.0936
     27 C         142.0237  142.6969  160.7986 C.2     1  UNL1        0.0216
     28 C         142.2321  143.7187  161.8767 C.2     1  UNL1        0.0218
@<TRIPOS>BOND
     1     2     1    1
     2     2     3    1
     3     3     4    1
     4     4     5   am
     5     5     6    2
     6     5    12    1
     7    12    13   ar
     8    13    14   ar
     9    14    15   ar
    10    15    16   ar
    11    16    17   ar
    12     4     7    1
    13     7     8    1
    14     8     9    1
    15     9    10   am
    16    10    11    2
    17    10    18    1
    18    18    19    2
    19    18    20    1
    20    20    21    2
    21    21    22    1
    22    22    23    2
    23    23    24    1
    24    24    25    1
    25    25    26    2
    26    26    27    1
    27    27    28    2
    28     9     2    1
    29    28    20    1
    30    17    12   ar
    31    28    23    1
@<TRIPOS>MOLECULE
*****
 28 31 0 0 0
SMALL
GASTEIGER

@<TRIPOS>ATOM
      1 C         137.3536  141.0236  162.8585 C.3     1  UNL1        0.0233
      2 C         138.3844  141.6301  163.7638 C.3     1  UNL1        0.0956
      3 C         138.6276  141.0433  165.1227 C.3     1  UNL1        0.1135
      4 N         139.6584  141.6497  166.0280 N.am    1  UNL1       -0.2726
      5 C         139.9016  141.0628  167.3868 C.2     1  UNL1        0.2491
      6 O         139.1140  139.8696  167.8404 O.2     1  UNL1       -0.2699
      7 C         140.4461  142.8430  165.5745 C.3     1  UNL1        0.1152
      8 C         140.2028  143.4298  164.2156 C.3     1  UNL1        0.1153
      9 N         139.1720  142.8234  163.3103 N.am    1  UNL1       -0.2716
     10 C         138.9288  143.4102  161.9515 C.2     1  UNL1        0.2883
     11 O         137.8980  142.8037  161.0462 O.2     1  UNL1       -0.2664
     12 C         140.9324  141.6693  168.2921 C.ar    1  UNL1        0.0536
     13 C         142.3204  141.1021  168.3345 C.ar    1  UNL1        0.0045
     14 C         143.3512  141.7086  169.2398 C.ar    1  UNL1        0.0001
     15 C         142.9941  142.8823  170.1028 C.ar    1  UNL1        0.0000
     16 C         141.6061  143.4496  170.0605 C.ar    1  UNL1        0.0001
     17 C         140.5753  142.8431  169.1552 C.ar    1  UNL1        0.0045
     18 C         139.7165  144.6035  161.4979 C.2     1  UNL1        0.2502
     19 O         139.3663  145.9705  162.0064 O.2     1  UNL1       -0.2817
     20 C         140.8542  144.4297  160.5359 C.2     1  UNL1        0.0639
     21 C         142.1156  143.6596  160.7921 C.2     1  UNL1        0.1019
     22 N         142.9712  143.7495  159.5633 N.2     1  UNL1       -0.2460
     23 C         142.2385  144.5751  158.5477 C.2     1  UNL1        0.0837
     24 C         142.5937  144.9984  157.1532 C.3     1  UNL1        0.1708
     25 N         141.6405  145.8421  156.3598 N.2     1  UNL1       -0.2624
     26 C         140.3320  146.2625  156.9609 C.2     1  UNL1        0.0936
     27 C         139.9768  145.8392  158.3554 C.2     1  UNL1        0.0216
     28 C         140.9301  144.9955  159.1488 C.2     1  UNL1        0.0218
@<TRIPOS>BOND
     1     2     1    1
     2     2     3    1
     3     3     4    1
     4     4     5   am
     5     5     6    2
     6     5    12    1
     7    12    13   ar
     8    13    14   ar
     9    14    15   ar
    10    15    16   ar
    11    16    17   ar
    12     4     7    1
    13     7     8    1
    14     8     9    1
    15     9    10   am
    16    10    11    2
    17    10    18    1
    18    18    19    2
    19    18    20    1
    20    20    21    2
    21    21    22    1
    22    22    23    2
    23    23    24    1
    24    24    25    1
    25    25    26    2
    26    26    27    1
    27    27    28    2
    28     9     2    1
    29    28    20    1
    30    17    12   ar
    31    28    23    1
@<TRIPOS>MOLECULE
*****
 28 31 0 0 0
SMALL
GASTEIGER

@<TRIPOS>ATOM
      1 C         141.8634  137.5629  162.6855 C.3     1  UNL1        0.0233
      2 C         141.5477  138.4968  163.8161 C.3     1  UNL1        0.0956
      3 C         142.2882  138.3789  165.1153 C.3     1  UNL1        0.1135
      4 N         141.9726  139.3128  166.2459 N.am    1  UNL1       -0.2726
      5 C         142.7131  139.1948  167.5450 C.2     1  UNL1        0.2491
      6 O         143.7692  138.1430  167.7136 O.2     1  UNL1       -0.2699
      7 C         140.9165  140.3646  166.0774 C.3     1  UNL1        0.1152
      8 C         140.1760  140.4824  164.7782 C.3     1  UNL1        0.1153
      9 N         140.4917  139.5486  163.6476 N.am    1  UNL1       -0.2716
     10 C         139.7512  139.6665  162.3485 C.2     1  UNL1        0.2883
     11 O         140.0668  138.7326  161.2179 O.2     1  UNL1       -0.2664
     12 C         142.3975  140.1287  168.6756 C.ar    1  UNL1        0.0536
     13 C         141.4112  139.7231  169.7304 C.ar    1  UNL1        0.0045
     14 C         141.0955  140.6569  170.8610 C.ar    1  UNL1        0.0001
     15 C         141.7663  141.9965  170.9368 C.ar    1  UNL1        0.0000
     16 C         142.7526  142.4021  169.8821 C.ar    1  UNL1        0.0001
     17 C         143.0682  141.4682  168.7515 C.ar    1  UNL1        0.0045
     18 C         138.6950  140.7183  162.1799 C.2     1  UNL1        0.2502
     19 O         137.3518  140.5422  162.8237 O.2     1  UNL1       -0.2817
     20 C         138.9823  141.9462  161.3676 C.2     1  UNL1        0.0639
     21 C         138.7618  142.0984  159.8917 C.2     1  UNL1        0.1019
     22 N         139.1837  143.4837  159.5005 N.2     1  UNL1       -0.2460
     23 C         139.6649  144.1876  160.7346 C.2     1  UNL1        0.0837
     24 C         140.2003  145.5710  160.9567 C.3     1  UNL1        0.1708
     25 N         140.6112  146.0042  162.3327 N.2     1  UNL1       -0.2624
     26 C         140.4867  145.0540  163.4867 C.2     1  UNL1        0.0936
     27 C         139.9513  143.6705  163.2646 C.2     1  UNL1        0.0216
     28 C         139.5404  143.2373  161.8886 C.2     1  UNL1        0.0218
@<TRIPOS>BOND
     1     2     1    1
     2     2     3    1
     3     3     4    1
     4     4     5   am
     5     5     6    2
     6     5    12    1
     7    12    13   ar
     8    13    14   ar
     9    14    15   ar
    10    15    16   ar
    11    16    17   ar
    12     4     7    1
    13     7     8    1
    14     8     9    1
    15     9    10   am
    16    10    11    2
    17    10    18    1
    18    18    19    2
    19    18    20    1
    20    20    21    2
    21    21    22    1
    22    22    23    2
    23    23    24    1
    24    24    25    1
    25    25    26    2
    26    26    27    1
    27    27    28    2
    28     9     2    1
    29    28    20    1
    30    17    12   ar
    31    28    23    1
@<TRIPOS>MOLECULE
*****
 28 31 0 0 0
SMALL
GASTEIGER

@<TRIPOS>ATOM
      1 C         142.0468  137.7811  162.9121 C.3     1  UNL1        0.0233
      2 C         141.4339  138.7697  163.8591 C.3     1  UNL1        0.0956
      3 C         141.9376  138.8699  165.2685 C.3     1  UNL1        0.1135
      4 N         141.3247  139.8586  166.2155 N.am    1  UNL1       -0.2726
      5 C         141.8285  139.9587  167.6249 C.2     1  UNL1        0.2491
      6 O         142.9452  139.0703  168.0872 O.2     1  UNL1       -0.2699
      7 C         140.2081  140.7470  165.7533 C.3     1  UNL1        0.1152
      8 C         139.7043  140.6468  164.3440 C.3     1  UNL1        0.1153
      9 N         140.3172  139.6582  163.3969 N.am    1  UNL1       -0.2716
     10 C         139.8135  139.5580  161.9876 C.2     1  UNL1        0.2883
     11 O         140.4264  138.5694  161.0406 O.2     1  UNL1       -0.2664
     12 C         141.2156  140.9473  168.5719 C.ar    1  UNL1        0.0536
     13 C         139.9728  140.5877  169.3309 C.ar    1  UNL1        0.0045
     14 C         139.3599  141.5764  170.2780 C.ar    1  UNL1        0.0001
     15 C         139.9898  142.9247  170.4661 C.ar    1  UNL1        0.0000
     16 C         141.2325  143.2842  169.7070 C.ar    1  UNL1        0.0001
     17 C         141.8455  142.2956  168.7600 C.ar    1  UNL1        0.0045
     18 C         138.6968  140.4465  161.5253 C.2     1  UNL1        0.2502
     19 O         137.4106  139.8447  161.0423 O.2     1  UNL1       -0.2817
     20 C         138.8664  141.9368  161.5461 C.2     1  UNL1        0.0639
     21 C         137.9032  142.9257  162.1327 C.2     1  UNL1        0.1019
     22 N         138.4706  144.2998  161.9330 N.2     1  UNL1       -0.2460
     23 C         139.7845  144.1601  161.2229 C.2     1  UNL1        0.0837
     24 C         140.7897  145.1741  160.7632 C.3     1  UNL1        0.1708
     25 N         142.0395  144.7276  160.0644 N.2     1  UNL1       -0.2624
     26 C         142.2842  143.2671  159.8252 C.2     1  UNL1        0.0936
     27 C         141.2790  142.2532  160.2849 C.2     1  UNL1        0.0216
     28 C         140.0291  142.6997  160.9838 C.2     1  UNL1        0.0218
@<TRIPOS>BOND
     1     2     1    1
     2     2     3    1
     3     3     4    1
     4     4     5   am
     5     5     6    2
     6     5    12    1
     7    12    13   ar
     8    13    14   ar
     9    14    15   ar
    10    15    16   ar
    11    16    17   ar
    12     4     7    1
    13     7     8    1
    14     8     9    1
    15     9    10   am
    16    10    11    2
    17    10    18    1
    18    18    19    2
    19    18    20    1
    20    20    21    2
    21    21    22    1
    22    22    23    2
    23    23    24    1
    24    24    25    1
    25    25    26    2
    26    26    27    1
    27    27    28    2
    28     9     2    1
    29    28    20    1
    30    17    12   ar
    31    28    23    1
@<TRIPOS>MOLECULE
*****
 28 31 0 0 0
SMALL
GASTEIGER

@<TRIPOS>ATOM
      1 C         144.4547  139.2582  162.8490 C.3     1  UNL1        0.0233
      2 C         143.7623  139.9822  163.9654 C.3     1  UNL1        0.0956
      3 C         143.6719  139.3539  165.3245 C.3     1  UNL1        0.1135
      4 N         142.9795  140.0778  166.4409 N.am    1  UNL1       -0.2726
      5 C         142.8891  139.4494  167.7999 C.2     1  UNL1        0.2491
      6 O         143.4911  138.0972  168.0426 O.2     1  UNL1       -0.2699
      7 C         142.3775  141.4301  166.1983 C.3     1  UNL1        0.1152
      8 C         142.4679  142.0584  164.8393 C.3     1  UNL1        0.1153
      9 N         143.1603  141.3344  163.7228 N.am    1  UNL1       -0.2716
     10 C         143.2508  141.9628  162.3638 C.2     1  UNL1        0.2883
     11 O         143.9432  141.2388  161.2473 O.2     1  UNL1       -0.2664
     12 C         142.1968  140.1734  168.9164 C.ar    1  UNL1        0.0536
     13 C         142.9550  141.1590  169.7553 C.ar    1  UNL1        0.0045
     14 C         142.2626  141.8830  170.8717 C.ar    1  UNL1        0.0001
     15 C         140.8119  141.6214  171.1493 C.ar    1  UNL1        0.0000
     16 C         140.0537  140.6359  170.3104 C.ar    1  UNL1        0.0001
     17 C         140.7460  139.9119  169.1939 C.ar    1  UNL1        0.0045
     18 C         142.6487  143.3151  162.1211 C.2     1  UNL1        0.2502
     19 O         143.5248  144.5323  162.0956 O.2     1  UNL1       -0.2817
     20 C         141.1707  143.4501  161.9040 C.2     1  UNL1        0.0639
     21 C         140.4445  143.2183  160.6121 C.2     1  UNL1        0.1019
     22 N         138.9844  143.4656  160.8504 N.2     1  UNL1       -0.2460
     23 C         138.8081  143.8501  162.2895 C.2     1  UNL1        0.0837
     24 C         137.5917  144.2078  163.0911 C.3     1  UNL1        0.1708
     25 N         137.7267  144.5558  164.5438 N.2     1  UNL1       -0.2624
     26 C         139.0779  144.5463  165.1950 C.2     1  UNL1        0.0936
     27 C         140.2942  144.1887  164.3934 C.2     1  UNL1        0.0216
     28 C         140.1593  143.8406  162.9407 C.2     1  UNL1        0.0218
@<TRIPOS>BOND
     1     2     1    1
     2     2     3    1
     3     3     4    1
     4     4     5   am
     5     5     6    2
     6     5    12    1
     7    12    13   ar
     8    13    14   ar
     9    14    15   ar
    10    15    16   ar
    11    16    17   ar
    12     4     7    1
    13     7     8    1
    14     8     9    1
    15     9    10   am
    16    10    11    2
    17    10    18    1
    18    18    19    2
    19    18    20    1
    20    20    21    2
    21    21    22    1
    22    22    23    2
    23    23    24    1
    24    24    25    1
    25    25    26    2
    26    26    27    1
    27    27    28    2
    28     9     2    1
    29    28    20    1
    30    17    12   ar
    31    28    23    1
@<TRIPOS>MOLECULE
*****
 28 31 0 0 0
SMALL
GASTEIGER

@<TRIPOS>ATOM
      1 C         138.4950  138.4048  163.1234 C.3     1  UNL1        0.0233
      2 C         139.3413  139.1456  164.1158 C.3     1  UNL1        0.0956
      3 C         138.9698  139.1417  165.5691 C.3     1  UNL1        0.1135
      4 N         139.8161  139.8825  166.5615 N.am    1  UNL1       -0.2726
      5 C         139.4446  139.8785  168.0148 C.2     1  UNL1        0.2491
      6 O         138.2268  139.1338  168.4757 O.2     1  UNL1       -0.2699
      7 C         141.0338  140.6273  166.1008 C.3     1  UNL1        0.1152
      8 C         141.4053  140.6312  164.6475 C.3     1  UNL1        0.1153
      9 N         140.5590  139.8904  163.6550 N.am    1  UNL1       -0.2716
     10 C         140.9304  139.8943  162.2018 C.2     1  UNL1        0.2883
     11 O         140.0842  139.1535  161.2093 O.2     1  UNL1       -0.2664
     12 C         140.2909  140.6194  169.0072 C.ar    1  UNL1        0.0536
     13 C         141.2761  139.8735  169.8575 C.ar    1  UNL1        0.0045
     14 C         142.1224  140.6143  170.8499 C.ar    1  UNL1        0.0001
     15 C         141.9835  142.1011  170.9921 C.ar    1  UNL1        0.0000
     16 C         140.9983  142.8470  170.1419 C.ar    1  UNL1        0.0001
     17 C         140.1520  142.1061  169.1494 C.ar    1  UNL1        0.0045
     18 C         142.1483  140.6392  161.7409 C.2     1  UNL1        0.2502
     19 O         143.4097  139.8916  161.4253 O.2     1  UNL1       -0.2817
     20 C         142.1045  142.1315  161.5958 C.2     1  UNL1        0.0639
     21 C         143.2616  143.0170  161.2398 C.2     1  UNL1        0.1019
     22 N         142.7681  144.4331  161.2051 N.2     1  UNL1       -0.2460
     23 C         141.3059  144.4227  161.5397 C.2     1  UNL1        0.0837
     24 C         140.2950  145.5247  161.6557 C.3     1  UNL1        0.1708
     25 N         138.8739  145.2043  162.0131 N.2     1  UNL1       -0.2624
     26 C         138.4637  143.7818  162.2545 C.2     1  UNL1        0.0936
     27 C         139.4747  142.6797  162.1385 C.2     1  UNL1        0.0216
     28 C         140.8957  143.0002  161.7811 C.2     1  UNL1        0.0218
@<TRIPOS>BOND
     1     2     1    1
     2     2     3    1
     3     3     4    1
     4     4     5   am
     5     5     6    2
     6     5    12    1
     7    12    13   ar
     8    13    14   ar
     9    14    15   ar
    10    15    16   ar
    11    16    17   ar
    12     4     7    1
    13     7     8    1
    14     8     9    1
    15     9    10   am
    16    10    11    2
    17    10    18    1
    18    18    19    2
    19    18    20    1
    20    20    21    2
    21    21    22    1
    22    22    23    2
    23    23    24    1
    24    24    25    1
    25    25    26    2
    26    26    27    1
    27    27    28    2
    28     9     2    1
    29    28    20    1
    30    17    12   ar
    31    28    23    1
@<TRIPOS>MOLECULE
*****
 28 31 0 0 0
SMALL
GASTEIGER

@<TRIPOS>ATOM
      1 C         144.1239  144.2306  162.9845 C.3     1  UNL1        0.0233
      2 C         142.9922  143.8119  163.8755 C.3     1  UNL1        0.0956
      3 C         143.2712  143.3488  165.2747 C.3     1  UNL1        0.1135
      4 N         142.1396  142.9301  166.1658 N.am    1  UNL1       -0.2726
      5 C         142.4187  142.4670  167.5650 C.2     1  UNL1        0.2491
      6 O         143.8293  142.4227  168.0731 O.2     1  UNL1       -0.2699
      7 C         140.7290  142.9744  165.6578 C.3     1  UNL1        0.1152
      8 C         140.4500  143.4375  164.2586 C.3     1  UNL1        0.1153
      9 N         141.5816  143.8562  163.3675 N.am    1  UNL1       -0.2716
     10 C         141.3026  144.3193  161.9683 C.2     1  UNL1        0.2883
     11 O         142.4343  144.7380  161.0772 O.2     1  UNL1       -0.2664
     12 C         141.2870  142.0483  168.4561 C.ar    1  UNL1        0.0536
     13 C         140.6605  140.6959  168.2876 C.ar    1  UNL1        0.0045
     14 C         139.5289  140.2772  169.1787 C.ar    1  UNL1        0.0001
     15 C         139.0237  141.2109  170.2384 C.ar    1  UNL1        0.0000
     16 C         139.6502  142.5633  170.4069 C.ar    1  UNL1        0.0001
     17 C         140.7818  142.9820  169.5158 C.ar    1  UNL1        0.0045
     18 C         139.8919  144.3636  161.4602 C.2     1  UNL1        0.2502
     19 O         138.9757  145.4719  161.8869 O.2     1  UNL1       -0.2817
     20 C         139.3977  143.2997  160.5255 C.2     1  UNL1        0.0639
     21 C         139.4408  143.3531  159.0271 C.2     1  UNL1        0.1019
     22 N         138.8433  142.0819  158.5006 N.2     1  UNL1       -0.2460
     23 C         138.4308  141.2430  159.6737 C.2     1  UNL1        0.0837
     24 C         137.7875  139.8910  159.7639 C.3     1  UNL1        0.1708
     25 N         137.4869  139.2916  161.1057 N.2     1  UNL1       -0.2624
     26 C         137.8295  140.0442  162.3571 C.2     1  UNL1        0.0936
     27 C         138.4728  141.3962  162.2668 C.2     1  UNL1        0.0216
     28 C         138.7734  141.9956  160.9251 C.2     1  UNL1        0.0218
@<TRIPOS>BOND
     1     2     1    1
     2     2     3    1
     3     3     4    1
     4     4     5   am
     5     5     6    2
     6     5    12    1
     7    12    13   ar
     8    13    14   ar
     9    14    15   ar
    10    15    16   ar
    11    16    17   ar
    12     4     7    1
    13     7     8    1
    14     8     9    1
    15     9    10   am
    16    10    11    2
    17    10    18    1
    18    18    19    2
    19    18    20    1
    20    20    21    2
    21    21    22    1
    22    22    23    2
    23    23    24    1
    24    24    25    1
    25    25    26    2
    26    26    27    1
    27    27    28    2
    28     9     2    1
    29    28    20    1
    30    17    12   ar
    31    28    23    1
@<TRIPOS>MOLECULE
*****
 28 31 0 0 0
SMALL
GASTEIGER

@<TRIPOS>ATOM
      1 C         138.9468  137.5320  163.3113 C.3     1  UNL1        0.0233
      2 C         139.8002  138.3916  164.1960 C.3     1  UNL1        0.0956
      3 C         139.3460  138.7190  165.5876 C.3     1  UNL1        0.1135
      4 N         140.1995  139.5787  166.4723 N.am    1  UNL1       -0.2726
      5 C         139.7452  139.9061  167.8639 C.2     1  UNL1        0.2491
      6 O         138.4376  139.3739  168.3708 O.2     1  UNL1       -0.2699
      7 C         141.5071  140.1109  165.9655 C.3     1  UNL1        0.1152
      8 C         141.9612  139.7834  164.5739 C.3     1  UNL1        0.1153
      9 N         141.1078  138.9238  163.6892 N.am    1  UNL1       -0.2716
     10 C         141.5620  138.5963  162.2976 C.2     1  UNL1        0.2883
     11 O         140.7086  137.7367  161.4129 O.2     1  UNL1       -0.2664
     12 C         140.5986  140.7657  168.7486 C.ar    1  UNL1        0.0536
     13 C         140.4684  142.2591  168.6949 C.ar    1  UNL1        0.0045
     14 C         141.3218  143.1187  169.5796 C.ar    1  UNL1        0.0001
     15 C         142.3055  142.4850  170.5180 C.ar    1  UNL1        0.0000
     16 C         142.4358  140.9916  170.5717 C.ar    1  UNL1        0.0001
     17 C         141.5824  140.1320  169.6870 C.ar    1  UNL1        0.0045
     18 C         142.8697  139.1285  161.7907 C.2     1  UNL1        0.2502
     19 O         144.1563  138.6744  162.4138 O.2     1  UNL1       -0.2817
     20 C         142.8906  140.1148  160.6607 C.2     1  UNL1        0.0639
     21 C         143.1685  139.8000  159.2207 C.2     1  UNL1        0.1019
     22 N         143.0869  141.0798  158.4425 N.2     1  UNL1       -0.2460
     23 C         142.7586  142.1854  159.4015 C.2     1  UNL1        0.0837
     24 C         142.5545  143.6582  159.2035 C.3     1  UNL1        0.1708
     25 N         142.2291  144.5346  160.3765 N.2     1  UNL1       -0.2624
     26 C         142.1078  143.9382  161.7475 C.2     1  UNL1        0.0936
     27 C         142.3119  142.4655  161.9455 C.2     1  UNL1        0.0216
     28 C         142.6373  141.5891  160.7725 C.2     1  UNL1        0.0218
@<TRIPOS>BOND
     1     2     1    1
     2     2     3    1
     3     3     4    1
     4     4     5   am
     5     5     6    2
     6     5    12    1
     7    12    13   ar
     8    13    14   ar
     9    14    15   ar
    10    15    16   ar
    11    16    17   ar
    12     4     7    1
    13     7     8    1
    14     8     9    1
    15     9    10   am
    16    10    11    2
    17    10    18    1
    18    18    19    2
    19    18    20    1
    20    20    21    2
    21    21    22    1
    22    22    23    2
    23    23    24    1
    24    24    25    1
    25    25    26    2
    26    26    27    1
    27    27    28    2
    28     9     2    1
    29    28    20    1
    30    17    12   ar
    31    28    23    1
