@<TRIPOS>MOLECULE
*****
 43 47 0 0 0
SMALL
GASTEIGER

@<TRIPOS>ATOM
      1 C         139.5220  140.0604  160.0247 C.1     1  UNL1       -0.0585
      2 C         139.6637  140.5091  161.4490 C.1     1  UNL1       -0.0386
      3 C         139.8055  140.9578  162.8733 C.ar    1  UNL1        0.1481
      4 N         140.3331  140.1325  164.0093 N.ar    1  UNL1       -0.1595
      5 N         140.2982  140.9752  165.2497 N.ar    1  UNL1       -0.2353
      6 C         139.7490  142.3213  164.8804 C.ar    1  UNL1        0.1659
      7 N         139.4869  143.5554  165.6917 N.ar    1  UNL1       -0.2050
      8 C         138.9202  144.7787  165.0342 C.ar    1  UNL1        0.2014
      9 N         138.6157  144.7680  163.5655 N.ar    1  UNL1       -0.2093
     10 C         138.8778  143.5339  162.7542 C.ar    1  UNL1        0.1322
     11 N         138.5733  143.5231  161.2855 N.pl3   1  UNL1       -0.3424
     12 C         139.4445  142.3105  163.4117 C.ar    1  UNL1        0.0938
     13 H         138.2014  144.3261  160.8540 H       1  UNL1        0.1437
     14 H         138.7454  142.7131  160.7530 H       1  UNL1        0.1437
     15 C         140.7357  140.5470  166.6191 C.3     1  UNL1        0.1070
     16 C         142.1482  140.0971  166.8488 C.3     1  UNL1        0.0269
     17 C         142.5856  139.6689  168.2182 C.3     1  UNL1        0.0312
     18 C         141.6107  139.6905  169.3579 C.3     1  UNL1        0.1107
     19 O         142.0482  139.2623  170.7273 O.3     1  UNL1       -0.3845
     20 C         140.1983  140.1404  169.1283 C.3     1  UNL1        0.0312
     21 C         139.7608  140.5686  167.7589 C.3     1  UNL1        0.0269
     22 H         141.3021  139.3360  171.3429 H       1  UNL1        0.2103
     23 C         138.1056  141.8044  158.0367 C.3     1  UNL1        0.0317
     24 C         138.6720  140.4838  157.6065 C.ar    1  UNL1       -0.0141
     25 C         138.5303  140.0351  156.1822 C.ar    1  UNL1       -0.0024
     26 C         139.0967  138.7146  155.7518 C.ar    1  UNL1        0.0144
     27 C         139.8050  137.8426  156.7458 C.ar    1  UNL1        0.0511
     28 C         139.9467  138.2912  158.1701 C.ar    1  UNL1        0.0226
     29 C         139.3803  139.6118  158.6004 C.ar    1  UNL1        0.0393
     30 N         140.3714  136.5220  156.3156 N.am    1  UNL1       -0.2804
     31 C         141.8556  136.3046  156.3219 C.2     1  UNL1        0.2495
     32 O         142.7732  137.4079  156.7586 O.2     1  UNL1       -0.2698
     33 H         139.7691  135.7979  156.0290 H       1  UNL1        0.1552
     34 C         142.4220  134.9841  155.8916 C.ar    1  UNL1        0.0536
     35 C         142.0420  134.4022  154.5624 C.ar    1  UNL1        0.0045
     36 C         142.6085  133.0816  154.1321 C.ar    1  UNL1        0.0001
     37 C         143.5550  132.3428  155.0311 C.ar    1  UNL1        0.0039
     38 C         143.9351  132.9246  156.3604 C.ar    1  UNL1        0.0716
     39 C         143.3685  134.2452  156.7907 C.ar    1  UNL1        0.0084
     40 C         144.8815  132.1859  157.2595 C.3     1  UNL1        0.4186
     41 F         145.8281  131.4471  158.1585 F       1  UNL1       -0.1659
     42 F         145.1934  131.2303  156.1461 F       1  UNL1       -0.1659
     43 F         144.5698  133.1414  158.3730 F       1  UNL1       -0.1659
@<TRIPOS>BOND
     1    23    24    1
     2    24    25   ar
     3    25    26   ar
     4    26    27   ar
     5    27    30    1
     6    30    31   am
     7    31    32    2
     8    31    34    1
     9    34    35   ar
    10    35    36   ar
    11    36    37   ar
    12    37    38   ar
    13    38    40    1
    14    40    41    1
    15    40    42    1
    16    40    43    1
    17    38    39   ar
    18    27    28   ar
    19    28    29   ar
    20    29     1    1
    21     1     2    3
    22     2     3    1
    23     3     4   ar
    24     4     5   ar
    25    15     5    1
    26    15    16    1
    27    16    17    1
    28    17    18    1
    29    18    19    1
    30    18    20    1
    31    20    21    1
    32     5     6   ar
    33     6     7   ar
    34     7     8   ar
    35     8     9   ar
    36     9    10   ar
    37    10    11    1
    38    10    12   ar
    39    29    24   ar
    40    12     3   ar
    41    39    34   ar
    42    21    15    1
    43    12     6   ar
    44    30    33    1
    45    19    22    1
    46    11    13    1
    47    11    14    1
@<TRIPOS>MOLECULE
*****
 43 47 0 0 0
SMALL
GASTEIGER

@<TRIPOS>ATOM
      1 C         143.3425  139.7555  159.7067 C.1     1  UNL1       -0.0585
      2 C         142.8852  138.7202  158.7223 C.1     1  UNL1       -0.0386
      3 C         142.4279  137.6848  157.7379 C.ar    1  UNL1        0.1481
      4 N         143.1747  136.4415  157.3552 N.ar    1  UNL1       -0.1595
      5 N         142.3518  135.6993  156.3442 N.ar    1  UNL1       -0.2353
      6 C         141.0965  136.4840  156.1021 C.ar    1  UNL1        0.1659
      7 N         139.9168  136.2396  155.2086 N.ar    1  UNL1       -0.2050
      8 C         138.7840  137.2223  155.1765 C.ar    1  UNL1        0.2014
      9 N         138.8311  138.4495  156.0378 N.ar    1  UNL1       -0.2093
     10 C         140.0108  138.6938  156.9313 C.ar    1  UNL1        0.1322
     11 N         140.0578  139.9210  157.7927 N.pl3   1  UNL1       -0.3424
     12 C         141.1435  137.7111  156.9635 C.ar    1  UNL1        0.0938
     13 H         139.3144  140.5660  157.7716 H       1  UNL1        0.1437
     14 H         140.8322  140.0813  158.3792 H       1  UNL1        0.1437
     15 C         142.7197  134.4005  155.6901 C.3     1  UNL1        0.1070
     16 C         142.1885  134.0706  154.3266 C.3     1  UNL1        0.0269
     17 C         142.5563  132.7718  153.6725 C.3     1  UNL1        0.0312
     18 C         143.4553  131.8029  154.3819 C.3     1  UNL1        0.1107
     19 O         143.8231  130.5041  153.7278 O.3     1  UNL1       -0.3845
     20 C         143.9864  132.1329  155.7453 C.3     1  UNL1        0.0312
     21 C         143.6186  133.4317  156.3994 C.3     1  UNL1        0.0269
     22 H         144.4058  129.9993  154.3165 H       1  UNL1        0.2103
     23 C         144.3345  142.4146  158.7347 C.3     1  UNL1        0.0317
     24 C         144.2958  142.1204  160.2050 C.ar    1  UNL1       -0.0141
     25 C         144.7531  143.1557  161.1894 C.ar    1  UNL1       -0.0024
     26 C         144.7144  142.8616  162.6597 C.ar    1  UNL1        0.0144
     27 C         144.2184  141.5319  163.1458 C.ar    1  UNL1        0.0511
     28 C         143.7611  140.4966  162.1614 C.ar    1  UNL1        0.0226
     29 C         143.7998  140.7908  160.6911 C.ar    1  UNL1        0.0393
     30 N         144.1797  141.2377  164.6161 N.am    1  UNL1       -0.2804
     31 C         142.8900  141.3611  165.3720 C.2     1  UNL1        0.2495
     32 O         141.6389  141.7788  164.6575 O.2     1  UNL1       -0.2698
     33 H         145.0008  140.9636  165.0851 H       1  UNL1        0.1552
     34 C         142.8513  141.0669  166.8423 C.ar    1  UNL1        0.0536
     35 C         142.5209  139.6847  167.3222 C.ar    1  UNL1        0.0045
     36 C         142.4822  139.3905  168.7925 C.ar    1  UNL1        0.0001
     37 C         142.7739  140.4785  169.7831 C.ar    1  UNL1        0.0039
     38 C         143.1043  141.8607  169.3033 C.ar    1  UNL1        0.0716
     39 C         143.1430  142.1549  167.8328 C.ar    1  UNL1        0.0084
     40 C         143.3960  142.9488  170.2937 C.3     1  UNL1        0.4186
     41 F         143.6878  144.0368  171.2841 F       1  UNL1       -0.1659
     42 F         144.8674  142.7298  170.1008 F       1  UNL1       -0.1659
     43 F         141.9247  143.1678  170.4866 F       1  UNL1       -0.1659
@<TRIPOS>BOND
     1    23    24    1
     2    24    25   ar
     3    25    26   ar
     4    26    27   ar
     5    27    30    1
     6    30    31   am
     7    31    32    2
     8    31    34    1
     9    34    35   ar
    10    35    36   ar
    11    36    37   ar
    12    37    38   ar
    13    38    40    1
    14    40    41    1
    15    40    42    1
    16    40    43    1
    17    38    39   ar
    18    27    28   ar
    19    28    29   ar
    20    29     1    1
    21     1     2    3
    22     2     3    1
    23     3     4   ar
    24     4     5   ar
    25    15     5    1
    26    15    16    1
    27    16    17    1
    28    17    18    1
    29    18    19    1
    30    18    20    1
    31    20    21    1
    32     5     6   ar
    33     6     7   ar
    34     7     8   ar
    35     8     9   ar
    36     9    10   ar
    37    10    11    1
    38    10    12   ar
    39    29    24   ar
    40    12     3   ar
    41    39    34   ar
    42    21    15    1
    43    12     6   ar
    44    30    33    1
    45    19    22    1
    46    11    13    1
    47    11    14    1
@<TRIPOS>MOLECULE
*****
 43 47 0 0 0
SMALL
GASTEIGER

@<TRIPOS>ATOM
      1 C         142.3345  141.2387  160.7060 C.1     1  UNL1       -0.0585
      2 C         141.9470  141.5762  162.1153 C.1     1  UNL1       -0.0386
      3 C         141.5594  141.9138  163.5245 C.ar    1  UNL1        0.1481
      4 N         142.1078  141.2761  164.7665 N.ar    1  UNL1       -0.1595
      5 N         141.4426  141.9165  165.9486 N.ar    1  UNL1       -0.2353
      6 C         140.4831  142.9499  165.4372 C.ar    1  UNL1        0.1659
      7 N         139.5531  143.8921  166.1423 N.ar    1  UNL1       -0.2050
      8 C         138.6952  144.8327  165.3490 C.ar    1  UNL1        0.2014
      9 N         138.7674  144.8310  163.8508 N.ar    1  UNL1       -0.2093
     10 C         139.6974  143.8888  163.1457 C.ar    1  UNL1        0.1322
     11 N         139.7696  143.8871  161.6475 N.pl3   1  UNL1       -0.3424
     12 C         140.5553  142.9482  163.9390 C.ar    1  UNL1        0.0938
     13 H         139.2065  144.5044  161.1268 H       1  UNL1        0.1437
     14 H         140.3800  143.2686  161.1847 H       1  UNL1        0.1437
     15 C         141.6930  141.5822  167.3893 C.3     1  UNL1        0.1070
     16 C         142.8806  142.1626  168.0986 C.3     1  UNL1        0.0269
     17 C         143.1309  141.8283  169.5392 C.3     1  UNL1        0.0312
     18 C         142.1938  140.9136  170.2707 C.3     1  UNL1        0.1107
     19 O         142.4441  140.5793  171.7114 O.3     1  UNL1       -0.3845
     20 C         141.0063  140.3332  169.5616 C.3     1  UNL1        0.0312
     21 C         140.7559  140.6676  168.1209 C.3     1  UNL1        0.0269
     22 H         141.7502  139.9810  172.0298 H       1  UNL1        0.2103
     23 C         142.8279  143.4322  158.7198 C.3     1  UNL1        0.0317
     24 C         142.9688  141.9980  158.3037 C.ar    1  UNL1       -0.0141
     25 C         143.3564  141.6604  156.8945 C.ar    1  UNL1       -0.0024
     26 C         143.4973  140.2263  156.4784 C.ar    1  UNL1        0.0144
     27 C         143.2505  139.1295  157.4715 C.ar    1  UNL1        0.0511
     28 C         142.8629  139.4670  158.8807 C.ar    1  UNL1        0.0226
     29 C         142.7221  140.9012  159.2968 C.ar    1  UNL1        0.0393
     30 N         143.3914  137.6952  157.0554 N.am    1  UNL1       -0.2804
     31 C         142.1704  136.8419  156.8798 C.2     1  UNL1        0.2495
     32 O         140.8085  137.4228  157.1202 O.2     1  UNL1       -0.2698
     33 H         144.2852  137.3140  156.8976 H       1  UNL1        0.1552
     34 C         142.3112  135.4077  156.4637 C.ar    1  UNL1        0.0536
     35 C         141.4802  134.8683  155.3375 C.ar    1  UNL1        0.0045
     36 C         141.6210  133.4341  154.9214 C.ar    1  UNL1        0.0001
     37 C         142.5930  132.5391  155.6316 C.ar    1  UNL1        0.0039
     38 C         143.4241  133.0784  156.7578 C.ar    1  UNL1        0.0716
     39 C         143.2832  134.5127  157.1739 C.ar    1  UNL1        0.0084
     40 C         144.3961  132.1836  157.4680 C.3     1  UNL1        0.4186
     41 F         145.3681  131.2888  158.1783 F       1  UNL1       -0.1659
     42 F         144.8936  133.3546  158.2626 F       1  UNL1       -0.1659
     43 F         143.8986  131.0125  156.6735 F       1  UNL1       -0.1659
@<TRIPOS>BOND
     1    23    24    1
     2    24    25   ar
     3    25    26   ar
     4    26    27   ar
     5    27    30    1
     6    30    31   am
     7    31    32    2
     8    31    34    1
     9    34    35   ar
    10    35    36   ar
    11    36    37   ar
    12    37    38   ar
    13    38    40    1
    14    40    41    1
    15    40    42    1
    16    40    43    1
    17    38    39   ar
    18    27    28   ar
    19    28    29   ar
    20    29     1    1
    21     1     2    3
    22     2     3    1
    23     3     4   ar
    24     4     5   ar
    25    15     5    1
    26    15    16    1
    27    16    17    1
    28    17    18    1
    29    18    19    1
    30    18    20    1
    31    20    21    1
    32     5     6   ar
    33     6     7   ar
    34     7     8   ar
    35     8     9   ar
    36     9    10   ar
    37    10    11    1
    38    10    12   ar
    39    29    24   ar
    40    12     3   ar
    41    39    34   ar
    42    21    15    1
    43    12     6   ar
    44    30    33    1
    45    19    22    1
    46    11    13    1
    47    11    14    1
@<TRIPOS>MOLECULE
*****
 43 47 0 0 0
SMALL
GASTEIGER

@<TRIPOS>ATOM
      1 C         141.9336  140.2496  161.1525 C.1     1  UNL1       -0.0585
      2 C         141.6257  140.3730  162.6154 C.1     1  UNL1       -0.0386
      3 C         141.3176  140.4963  164.0782 C.ar    1  UNL1        0.1481
      4 N         142.0667  141.3371  165.0691 N.ar    1  UNL1       -0.1595
      5 N         141.4184  141.1609  166.4103 N.ar    1  UNL1       -0.2353
      6 C         140.2687  140.2111  166.2482 C.ar    1  UNL1        0.1659
      7 N         139.2705  139.6673  167.2269 N.ar    1  UNL1       -0.2050
      8 C         138.2100  138.7127  166.7642 C.ar    1  UNL1        0.2014
      9 N         138.1478  138.3020  165.3229 N.ar    1  UNL1       -0.2093
     10 C         139.1460  138.8458  164.3443 C.ar    1  UNL1        0.1322
     11 N         139.0837  138.4351  162.9029 N.pl3   1  UNL1       -0.3424
     12 C         140.2064  139.8004  164.8069 C.ar    1  UNL1        0.0938
     13 H         138.3876  137.8085  162.5993 H       1  UNL1        0.1437
     14 H         139.7388  138.7920  162.2606 H       1  UNL1        0.1437
     15 C         141.8449  141.8188  167.6890 C.3     1  UNL1        0.1070
     16 C         140.8805  142.6836  168.4456 C.3     1  UNL1        0.0269
     17 C         141.3070  143.3415  169.7243 C.3     1  UNL1        0.0312
     18 C         142.6979  143.1349  170.2465 C.3     1  UNL1        0.1107
     19 O         143.1244  143.7928  171.5253 O.3     1  UNL1       -0.3845
     20 C         143.6622  142.2702  169.4900 C.3     1  UNL1        0.0312
     21 C         143.2357  141.6122  168.2113 C.3     1  UNL1        0.0269
     22 H         144.0454  143.5576  171.7184 H       1  UNL1        0.2103
     23 C         141.8634  142.6797  159.3948 C.3     1  UNL1        0.0317
     24 C         142.2065  141.3414  158.8108 C.ar    1  UNL1       -0.0141
     25 C         142.5146  141.2181  157.3480 C.ar    1  UNL1       -0.0024
     26 C         142.8577  139.8798  156.7640 C.ar    1  UNL1        0.0144
     27 C         142.8929  138.6646  157.6428 C.ar    1  UNL1        0.0511
     28 C         142.5848  138.7880  159.1057 C.ar    1  UNL1        0.0226
     29 C         142.2417  140.1263  159.6896 C.ar    1  UNL1        0.0393
     30 N         143.2361  137.3263  157.0589 N.am    1  UNL1       -0.2804
     31 C         142.1469  136.4261  156.5555 C.2     1  UNL1        0.2495
     32 O         140.7146  136.8643  156.6361 O.2     1  UNL1       -0.2698
     33 H         144.1761  137.0387  157.0059 H       1  UNL1        0.1552
     34 C         142.4901  135.0877  155.9715 C.ar    1  UNL1        0.0536
     35 C         142.1683  134.7906  154.5369 C.ar    1  UNL1        0.0045
     36 C         142.5115  133.4522  153.9530 C.ar    1  UNL1        0.0001
     37 C         143.1765  132.4110  154.8036 C.ar    1  UNL1        0.0039
     38 C         143.4983  132.7080  156.2382 C.ar    1  UNL1        0.0716
     39 C         143.1550  134.0465  156.8222 C.ar    1  UNL1        0.0084
     40 C         144.1632  131.6669  157.0889 C.3     1  UNL1        0.4186
     41 F         144.8283  130.6258  157.9397 F       1  UNL1       -0.1659
     42 F         145.5024  132.0954  156.5665 F       1  UNL1       -0.1659
     43 F         142.8240  131.2384  157.6114 F       1  UNL1       -0.1659
@<TRIPOS>BOND
     1    23    24    1
     2    24    25   ar
     3    25    26   ar
     4    26    27   ar
     5    27    30    1
     6    30    31   am
     7    31    32    2
     8    31    34    1
     9    34    35   ar
    10    35    36   ar
    11    36    37   ar
    12    37    38   ar
    13    38    40    1
    14    40    41    1
    15    40    42    1
    16    40    43    1
    17    38    39   ar
    18    27    28   ar
    19    28    29   ar
    20    29     1    1
    21     1     2    3
    22     2     3    1
    23     3     4   ar
    24     4     5   ar
    25    15     5    1
    26    15    16    1
    27    16    17    1
    28    17    18    1
    29    18    19    1
    30    18    20    1
    31    20    21    1
    32     5     6   ar
    33     6     7   ar
    34     7     8   ar
    35     8     9   ar
    36     9    10   ar
    37    10    11    1
    38    10    12   ar
    39    29    24   ar
    40    12     3   ar
    41    39    34   ar
    42    21    15    1
    43    12     6   ar
    44    30    33    1
    45    19    22    1
    46    11    13    1
    47    11    14    1
@<TRIPOS>MOLECULE
*****
 43 47 0 0 0
SMALL
GASTEIGER

@<TRIPOS>ATOM
      1 C         142.8378  143.2118  159.6240 C.1     1  UNL1       -0.0585
      2 C         143.6889  142.5369  158.5895 C.1     1  UNL1       -0.0386
      3 C         144.5401  141.8622  157.5549 C.ar    1  UNL1        0.1481
      4 N         145.7440  142.4522  156.8823 N.ar    1  UNL1       -0.1595
      5 N         146.2848  141.4336  155.9231 N.ar    1  UNL1       -0.2353
      6 C         145.4151  140.2141  156.0029 C.ar    1  UNL1        0.1659
      7 N         145.4657  138.8967  155.2876 N.ar    1  UNL1       -0.2050
      8 C         144.4380  137.8441  155.5808 C.ar    1  UNL1        0.2014
      9 N         143.3598  138.1090  156.5893 N.ar    1  UNL1       -0.2093
     10 C         143.3091  139.4264  157.3047 C.ar    1  UNL1        0.1322
     11 N         142.2309  139.6913  158.3132 N.pl3   1  UNL1       -0.3424
     12 C         144.3368  140.4790  157.0115 C.ar    1  UNL1        0.0938
     13 H         141.5564  139.0005  158.5057 H       1  UNL1        0.1437
     14 H         142.1977  140.5560  158.7827 H       1  UNL1        0.1437
     15 C         147.4846  141.6045  155.0392 C.3     1  UNL1        0.1070
     16 C         148.8541  141.7004  155.6439 C.3     1  UNL1        0.0269
     17 C         150.0539  141.8713  154.7600 C.3     1  UNL1        0.0312
     18 C         149.8843  141.9463  153.2715 C.3     1  UNL1        0.1107
     19 O         151.0841  142.1172  152.3877 O.3     1  UNL1       -0.3845
     20 C         148.5149  141.8504  152.6669 C.3     1  UNL1        0.0312
     21 C         147.3151  141.6795  153.5508 C.3     1  UNL1        0.0269
     22 H         150.8010  142.1467  151.4604 H       1  UNL1        0.2103
     23 C         141.0645  145.5029  158.8454 C.3     1  UNL1        0.0317
     24 C         141.0999  145.0321  160.2692 C.ar    1  UNL1       -0.0141
     25 C         140.2488  145.7068  161.3037 C.ar    1  UNL1       -0.0024
     26 C         140.2842  145.2360  162.7274 C.ar    1  UNL1        0.0144
     27 C         141.1708  144.0904  163.1167 C.ar    1  UNL1        0.0511
     28 C         142.0220  143.4157  162.0822 C.ar    1  UNL1        0.0226
     29 C         141.9866  143.8865  160.6585 C.ar    1  UNL1        0.0393
     30 N         141.2063  143.6196  164.5405 N.am    1  UNL1       -0.2804
     31 C         140.4156  142.4130  164.9513 C.2     1  UNL1        0.2495
     32 O         139.5894  141.6772  163.9383 O.2     1  UNL1       -0.2698
     33 H         141.7485  144.1026  165.2053 H       1  UNL1        0.1552
     34 C         140.4510  141.9422  166.3750 C.ar    1  UNL1        0.0536
     35 C         139.6305  140.7586  166.7943 C.ar    1  UNL1        0.0045
     36 C         139.6659  140.2878  168.2180 C.ar    1  UNL1        0.0001
     37 C         140.5220  141.0005  169.2226 C.ar    1  UNL1        0.0039
     38 C         141.3426  142.1841  168.8034 C.ar    1  UNL1        0.0716
     39 C         141.3071  142.6549  167.3796 C.ar    1  UNL1        0.0084
     40 C         142.1986  142.8970  169.8079 C.3     1  UNL1        0.4186
     41 F         143.0547  143.6097  170.8123 F       1  UNL1       -0.1659
     42 F         143.2442  141.8298  169.6740 F       1  UNL1       -0.1659
     43 F         141.1530  143.9642  169.9417 F       1  UNL1       -0.1659
@<TRIPOS>BOND
     1    23    24    1
     2    24    25   ar
     3    25    26   ar
     4    26    27   ar
     5    27    30    1
     6    30    31   am
     7    31    32    2
     8    31    34    1
     9    34    35   ar
    10    35    36   ar
    11    36    37   ar
    12    37    38   ar
    13    38    40    1
    14    40    41    1
    15    40    42    1
    16    40    43    1
    17    38    39   ar
    18    27    28   ar
    19    28    29   ar
    20    29     1    1
    21     1     2    3
    22     2     3    1
    23     3     4   ar
    24     4     5   ar
    25    15     5    1
    26    15    16    1
    27    16    17    1
    28    17    18    1
    29    18    19    1
    30    18    20    1
    31    20    21    1
    32     5     6   ar
    33     6     7   ar
    34     7     8   ar
    35     8     9   ar
    36     9    10   ar
    37    10    11    1
    38    10    12   ar
    39    29    24   ar
    40    12     3   ar
    41    39    34   ar
    42    21    15    1
    43    12     6   ar
    44    30    33    1
    45    19    22    1
    46    11    13    1
    47    11    14    1
@<TRIPOS>MOLECULE
*****
 43 47 0 0 0
SMALL
GASTEIGER

@<TRIPOS>ATOM
      1 C         140.9086  140.0584  160.4807 C.1     1  UNL1       -0.0585
      2 C         141.2264  140.3836  161.9102 C.1     1  UNL1       -0.0386
      3 C         141.5442  140.7087  163.3396 C.ar    1  UNL1        0.1481
      4 N         140.8785  140.1180  164.5471 N.ar    1  UNL1       -0.1595
      5 N         141.5064  140.7258  165.7663 N.ar    1  UNL1       -0.2353
      6 C         142.5601  141.6920  165.3123 C.ar    1  UNL1        0.1659
      7 N         143.5013  142.5802  166.0708 N.ar    1  UNL1       -0.2050
      8 C         144.4658  143.4577  165.3295 C.ar    1  UNL1        0.2014
      9 N         144.4892  143.4471  163.8297 N.ar    1  UNL1       -0.2093
     10 C         143.5480  142.5590  163.0712 C.ar    1  UNL1        0.1322
     11 N         143.5714  142.5484  161.5715 N.pl3   1  UNL1       -0.3424
     12 C         142.5834  141.6815  163.8125 C.ar    1  UNL1        0.0938
     13 H         144.2045  143.1243  161.0849 H       1  UNL1        0.1437
     14 H         142.9536  141.9655  161.0736 H       1  UNL1        0.1437
     15 C         141.1442  140.4209  167.1896 C.3     1  UNL1        0.1070
     16 C         139.7347  140.6181  167.6636 C.3     1  UNL1        0.0269
     17 C         139.3724  140.3131  169.0869 C.3     1  UNL1        0.0312
     18 C         140.4196  139.8110  170.0362 C.3     1  UNL1        0.1107
     19 O         140.0574  139.5061  171.4596 O.3     1  UNL1       -0.3845
     20 C         141.8290  139.6139  169.5623 C.3     1  UNL1        0.0312
     21 C         142.1913  139.9188  168.1390 C.3     1  UNL1        0.0269
     22 H         140.8441  139.1942  171.9337 H       1  UNL1        0.2103
     23 C         139.6684  142.1380  158.7096 C.3     1  UNL1        0.0317
     24 C         139.9707  140.7732  158.1657 C.ar    1  UNL1       -0.0141
     25 C         139.6529  140.4481  156.7363 C.ar    1  UNL1       -0.0024
     26 C         139.9553  139.0833  156.1924 C.ar    1  UNL1        0.0144
     27 C         140.5754  138.0434  157.0779 C.ar    1  UNL1        0.0511
     28 C         140.8932  138.3685  158.5074 C.ar    1  UNL1        0.0226
     29 C         140.5908  139.7333  159.0512 C.ar    1  UNL1        0.0393
     30 N         140.8778  136.6786  156.5340 N.am    1  UNL1       -0.2804
     31 C         142.2990  136.2097  156.4325 C.2     1  UNL1        0.2495
     32 O         143.4178  137.1055  156.8749 O.2     1  UNL1       -0.2698
     33 H         140.1435  136.0906  156.2437 H       1  UNL1        0.1552
     34 C         142.6013  134.8448  155.8887 C.ar    1  UNL1        0.0536
     35 C         142.2033  134.4911  154.4864 C.ar    1  UNL1        0.0045
     36 C         142.5057  133.1263  153.9425 C.ar    1  UNL1        0.0001
     37 C         143.2061  132.1151  154.8010 C.ar    1  UNL1        0.0039
     38 C         143.6041  132.4687  156.2033 C.ar    1  UNL1        0.0716
     39 C         143.3017  133.8336  156.7471 C.ar    1  UNL1        0.0084
     40 C         144.3045  131.4577  157.0618 C.3     1  UNL1        0.4186
     41 F         145.0048  130.4465  157.9203 F       1  UNL1       -0.1659
     42 F         142.9781  130.9124  157.5017 F       1  UNL1       -0.1659
     43 F         145.6309  132.0028  156.6219 F       1  UNL1       -0.1659
@<TRIPOS>BOND
     1    23    24    1
     2    24    25   ar
     3    25    26   ar
     4    26    27   ar
     5    27    30    1
     6    30    31   am
     7    31    32    2
     8    31    34    1
     9    34    35   ar
    10    35    36   ar
    11    36    37   ar
    12    37    38   ar
    13    38    40    1
    14    40    41    1
    15    40    42    1
    16    40    43    1
    17    38    39   ar
    18    27    28   ar
    19    28    29   ar
    20    29     1    1
    21     1     2    3
    22     2     3    1
    23     3     4   ar
    24     4     5   ar
    25    15     5    1
    26    15    16    1
    27    16    17    1
    28    17    18    1
    29    18    19    1
    30    18    20    1
    31    20    21    1
    32     5     6   ar
    33     6     7   ar
    34     7     8   ar
    35     8     9   ar
    36     9    10   ar
    37    10    11    1
    38    10    12   ar
    39    29    24   ar
    40    12     3   ar
    41    39    34   ar
    42    21    15    1
    43    12     6   ar
    44    30    33    1
    45    19    22    1
    46    11    13    1
    47    11    14    1
@<TRIPOS>MOLECULE
*****
 43 47 0 0 0
SMALL
GASTEIGER

@<TRIPOS>ATOM
      1 C         139.4849  139.9698  159.8455 C.1     1  UNL1       -0.0585
      2 C         139.6043  140.4238  161.2702 C.1     1  UNL1       -0.0386
      3 C         139.7239  140.8777  162.6949 C.ar    1  UNL1        0.1481
      4 N         140.2841  140.0755  163.8318 N.ar    1  UNL1       -0.1595
      5 N         140.2106  140.9157  165.0723 N.ar    1  UNL1       -0.2353
      6 C         139.6050  142.2371  164.7020 C.ar    1  UNL1        0.1659
      7 N         139.2887  143.4586  165.5130 N.ar    1  UNL1       -0.2050
      8 C         138.6715  144.6568  164.8546 C.ar    1  UNL1        0.2014
      9 N         138.3707  144.6333  163.3852 N.ar    1  UNL1       -0.2093
     10 C         138.6870  143.4118  162.5743 C.ar    1  UNL1        0.1322
     11 N         138.3862  143.3883  161.1049 N.pl3   1  UNL1       -0.3424
     12 C         139.3042  142.2137  163.2327 C.ar    1  UNL1        0.0938
     13 H         137.9811  144.1747  160.6728 H       1  UNL1        0.1437
     14 H         138.5938  142.5866  160.5727 H       1  UNL1        0.1437
     15 C         140.6633  140.5063  166.4425 C.3     1  UNL1        0.1070
     16 C         139.6887  140.4972  167.5828 C.3     1  UNL1        0.0269
     17 C         140.1414  140.0878  168.9531 C.3     1  UNL1        0.0312
     18 C         141.5685  139.6875  169.1830 C.3     1  UNL1        0.1107
     19 O         142.0212  139.2781  170.5532 O.3     1  UNL1       -0.3845
     20 C         142.5431  139.6966  168.0428 C.3     1  UNL1        0.0312
     21 C         142.0904  140.1059  166.6725 C.3     1  UNL1        0.0269
     22 H         142.9642  139.0521  170.5282 H       1  UNL1        0.2103
     23 C         138.2273  141.7672  157.7991 C.3     1  UNL1        0.0317
     24 C         138.7365  140.4145  157.3977 C.ar    1  UNL1       -0.0141
     25 C         138.6170  139.9606  155.9731 C.ar    1  UNL1       -0.0024
     26 C         139.1261  138.6080  155.5716 C.ar    1  UNL1        0.0144
     27 C         139.7549  137.7092  156.5949 C.ar    1  UNL1        0.0511
     28 C         139.8745  138.1632  158.0195 C.ar    1  UNL1        0.0226
     29 C         139.3653  139.5158  158.4209 C.ar    1  UNL1        0.0393
     30 N         140.2641  136.3566  156.1935 N.am    1  UNL1       -0.2804
     31 C         141.7317  136.0553  156.2680 C.2     1  UNL1        0.2495
     32 O         142.6900  137.1065  156.7440 O.2     1  UNL1       -0.2698
     33 H         139.6352  135.6667  155.8811 H       1  UNL1        0.1552
     34 C         142.2408  134.7026  155.8667 C.ar    1  UNL1        0.0536
     35 C         143.6117  134.2622  156.2870 C.ar    1  UNL1        0.0045
     36 C         144.1209  132.9096  155.8856 C.ar    1  UNL1        0.0001
     37 C         143.2592  131.9973  155.0638 C.ar    1  UNL1        0.0039
     38 C         141.8883  132.4377  154.6434 C.ar    1  UNL1        0.0716
     39 C         141.3792  133.7904  155.0449 C.ar    1  UNL1        0.0084
     40 C         141.0266  131.5256  153.8217 C.3     1  UNL1        0.4186
     41 F         140.1649  130.6134  152.9998 F       1  UNL1       -0.1659
     42 F         141.9715  131.6739  152.6662 F       1  UNL1       -0.1659
     43 F         140.0816  131.3772  154.9771 F       1  UNL1       -0.1659
@<TRIPOS>BOND
     1    23    24    1
     2    24    25   ar
     3    25    26   ar
     4    26    27   ar
     5    27    30    1
     6    30    31   am
     7    31    32    2
     8    31    34    1
     9    34    35   ar
    10    35    36   ar
    11    36    37   ar
    12    37    38   ar
    13    38    40    1
    14    40    41    1
    15    40    42    1
    16    40    43    1
    17    38    39   ar
    18    27    28   ar
    19    28    29   ar
    20    29     1    1
    21     1     2    3
    22     2     3    1
    23     3     4   ar
    24     4     5   ar
    25    15     5    1
    26    15    16    1
    27    16    17    1
    28    17    18    1
    29    18    19    1
    30    18    20    1
    31    20    21    1
    32     5     6   ar
    33     6     7   ar
    34     7     8   ar
    35     8     9   ar
    36     9    10   ar
    37    10    11    1
    38    10    12   ar
    39    29    24   ar
    40    12     3   ar
    41    39    34   ar
    42    21    15    1
    43    12     6   ar
    44    30    33    1
    45    19    22    1
    46    11    13    1
    47    11    14    1
@<TRIPOS>MOLECULE
*****
 43 47 0 0 0
SMALL
GASTEIGER

@<TRIPOS>ATOM
      1 C         140.7131  141.2494  160.0422 C.1     1  UNL1       -0.0585
      2 C         140.1672  142.1130  158.9438 C.1     1  UNL1       -0.0386
      3 C         139.6212  142.9764  157.8454 C.ar    1  UNL1        0.1481
      4 N         140.1994  144.2792  157.3781 N.ar    1  UNL1       -0.1595
      5 N         139.3368  144.7966  156.2654 N.ar    1  UNL1       -0.2353
      6 C         138.2254  143.8136  156.0451 C.ar    1  UNL1        0.1659
      7 N         137.0761  143.7975  155.0814 N.ar    1  UNL1       -0.2050
      8 C         136.1026  142.6564  155.0942 C.ar    1  UNL1        0.2014
      9 N         136.2784  141.5315  156.0707 N.ar    1  UNL1       -0.2093
     10 C         137.4277  141.5476  157.0344 C.ar    1  UNL1        0.1322
     11 N         137.6035  140.4226  158.0109 N.pl3   1  UNL1       -0.3424
     12 C         138.4012  142.6886  157.0216 C.ar    1  UNL1        0.0938
     13 H         136.9645  139.6737  158.0193 H       1  UNL1        0.1437
     14 H         138.3578  140.4332  158.6434 H       1  UNL1        0.1437
     15 C         139.5483  146.0729  155.5063 C.3     1  UNL1        0.1070
     16 C         138.9162  147.3454  155.9876 C.3     1  UNL1        0.0269
     17 C         139.1278  148.6217  155.2285 C.3     1  UNL1        0.0312
     18 C         139.9713  148.6257  153.9882 C.3     1  UNL1        0.1107
     19 O         140.1829  149.9020  153.2291 O.3     1  UNL1       -0.3845
     20 C         140.6034  147.3533  153.5070 C.3     1  UNL1        0.0312
     21 C         140.3918  146.0770  154.2661 C.3     1  UNL1        0.0269
     22 H         140.7479  149.7307  152.4595 H       1  UNL1        0.2103
     23 C         141.0995  138.3095  159.5873 C.3     1  UNL1        0.0317
     24 C         141.4522  138.9160  160.9130 C.ar    1  UNL1       -0.0141
     25 C         141.9982  138.0525  162.0114 C.ar    1  UNL1       -0.0024
     26 C         142.3509  138.6590  163.3371 C.ar    1  UNL1        0.0144
     27 C         142.1577  140.1291  163.5647 C.ar    1  UNL1        0.0511
     28 C         141.6118  140.9925  162.4663 C.ar    1  UNL1        0.0226
     29 C         141.2591  140.3860  161.1405 C.ar    1  UNL1        0.0393
     30 N         142.5104  140.7356  164.8904 N.am    1  UNL1       -0.2804
     31 C         141.4277  141.0768  165.8709 C.2     1  UNL1        0.2495
     32 O         139.9923  140.8114  165.5257 O.2     1  UNL1       -0.2698
     33 H         143.4525  140.9098  165.1170 H       1  UNL1        0.1552
     34 C         141.7805  141.6833  167.1967 C.ar    1  UNL1        0.0536
     35 C         143.2193  141.8449  167.5886 C.ar    1  UNL1        0.0045
     36 C         143.5720  142.4514  168.9144 C.ar    1  UNL1        0.0001
     37 C         142.4858  142.8964  169.8483 C.ar    1  UNL1        0.0039
     38 C         141.0470  142.7349  169.4565 C.ar    1  UNL1        0.0716
     39 C         140.6943  142.1283  168.1306 C.ar    1  UNL1        0.0084
     40 C         139.9608  143.1799  170.3903 C.3     1  UNL1        0.4186
     41 F         138.8745  143.6247  171.3242 F       1  UNL1       -0.1659
     42 F         139.7499  141.7589  170.8221 F       1  UNL1       -0.1659
     43 F         140.1716  144.6009  169.9586 F       1  UNL1       -0.1659
@<TRIPOS>BOND
     1    23    24    1
     2    24    25   ar
     3    25    26   ar
     4    26    27   ar
     5    27    30    1
     6    30    31   am
     7    31    32    2
     8    31    34    1
     9    34    35   ar
    10    35    36   ar
    11    36    37   ar
    12    37    38   ar
    13    38    40    1
    14    40    41    1
    15    40    42    1
    16    40    43    1
    17    38    39   ar
    18    27    28   ar
    19    28    29   ar
    20    29     1    1
    21     1     2    3
    22     2     3    1
    23     3     4   ar
    24     4     5   ar
    25    15     5    1
    26    15    16    1
    27    16    17    1
    28    17    18    1
    29    18    19    1
    30    18    20    1
    31    20    21    1
    32     5     6   ar
    33     6     7   ar
    34     7     8   ar
    35     8     9   ar
    36     9    10   ar
    37    10    11    1
    38    10    12   ar
    39    29    24   ar
    40    12     3   ar
    41    39    34   ar
    42    21    15    1
    43    12     6   ar
    44    30    33    1
    45    19    22    1
    46    11    13    1
    47    11    14    1
@<TRIPOS>MOLECULE
*****
 43 47 0 0 0
SMALL
GASTEIGER

@<TRIPOS>ATOM
      1 C         141.6781  139.8683  160.4836 C.1     1  UNL1       -0.0585
      2 C         141.8523  140.2413  161.9261 C.1     1  UNL1       -0.0386
      3 C         142.0266  140.6141  163.3685 C.ar    1  UNL1        0.1481
      4 N         141.3009  140.0037  164.5308 N.ar    1  UNL1       -0.1595
      5 N         141.7829  140.6752  165.7825 N.ar    1  UNL1       -0.2353
      6 C         142.8064  141.7006  165.3938 C.ar    1  UNL1        0.1659
      7 N         143.6208  142.6638  166.2057 N.ar    1  UNL1       -0.2050
      8 C         144.5856  143.5892  165.5256 C.ar    1  UNL1        0.2014
      9 N         144.7362  143.5514  164.0336 N.ar    1  UNL1       -0.2093
     10 C         143.9219  142.5882  163.2218 C.ar    1  UNL1        0.1322
     11 N         144.0725  142.5505  161.7298 N.pl3   1  UNL1       -0.3424
     12 C         142.9570  141.6628  163.9019 C.ar    1  UNL1        0.0938
     13 H         144.7058  143.1579  161.2835 H       1  UNL1        0.1437
     14 H         143.5380  141.9183  161.1970 H       1  UNL1        0.1437
     15 C         141.3223  140.3742  167.1779 C.3     1  UNL1        0.1070
     16 C         139.8933  140.6161  167.5646 C.3     1  UNL1        0.0269
     17 C         139.4327  140.3151  168.9601 C.3     1  UNL1        0.0312
     18 C         140.4010  139.7722  169.9688 C.3     1  UNL1        0.1107
     19 O         139.9404  139.4711  171.3642 O.3     1  UNL1       -0.3845
     20 C         141.8299  139.5302  169.5821 C.3     1  UNL1        0.0312
     21 C         142.2906  139.8313  168.1866 C.3     1  UNL1        0.0269
     22 H         140.6849  139.1300  171.8840 H       1  UNL1        0.2103
     23 C         141.1583  141.9984  158.4361 C.3     1  UNL1        0.0317
     24 C         141.2440  140.5605  158.0174 C.ar    1  UNL1       -0.0141
     25 C         141.0697  140.1877  156.5750 C.ar    1  UNL1       -0.0024
     26 C         141.1554  138.7499  156.1563 C.ar    1  UNL1        0.0144
     27 C         141.4153  137.6848  157.1801 C.ar    1  UNL1        0.0511
     28 C         141.5895  138.0577  158.6225 C.ar    1  UNL1        0.0226
     29 C         141.5039  139.4955  159.0412 C.ar    1  UNL1        0.0393
     30 N         141.5010  136.2470  156.7615 N.am    1  UNL1       -0.2804
     31 C         142.8068  135.6799  156.2890 C.2     1  UNL1        0.2495
     32 O         144.0270  136.5507  156.2352 O.2     1  UNL1       -0.2698
     33 H         140.7002  135.6754  156.7968 H       1  UNL1        0.1552
     34 C         142.8925  134.2421  155.8704 C.ar    1  UNL1        0.0536
     35 C         144.1227  133.4423  156.1816 C.ar    1  UNL1        0.0045
     36 C         144.2084  132.0045  155.7630 C.ar    1  UNL1        0.0001
     37 C         143.0638  131.3663  155.0331 C.ar    1  UNL1        0.0039
     38 C         141.8336  132.1661  154.7218 C.ar    1  UNL1        0.0716
     39 C         141.7479  133.6040  155.1405 C.ar    1  UNL1        0.0084
     40 C         140.6890  131.5281  153.9920 C.3     1  UNL1        0.4186
     41 F         139.5443  130.8902  153.2620 F       1  UNL1       -0.1659
     42 F         140.5111  132.7766  153.1797 F       1  UNL1       -0.1659
     43 F         140.8668  130.2796  154.8042 F       1  UNL1       -0.1659
@<TRIPOS>BOND
     1    23    24    1
     2    24    25   ar
     3    25    26   ar
     4    26    27   ar
     5    27    30    1
     6    30    31   am
     7    31    32    2
     8    31    34    1
     9    34    35   ar
    10    35    36   ar
    11    36    37   ar
    12    37    38   ar
    13    38    40    1
    14    40    41    1
    15    40    42    1
    16    40    43    1
    17    38    39   ar
    18    27    28   ar
    19    28    29   ar
    20    29     1    1
    21     1     2    3
    22     2     3    1
    23     3     4   ar
    24     4     5   ar
    25    15     5    1
    26    15    16    1
    27    16    17    1
    28    17    18    1
    29    18    19    1
    30    18    20    1
    31    20    21    1
    32     5     6   ar
    33     6     7   ar
    34     7     8   ar
    35     8     9   ar
    36     9    10   ar
    37    10    11    1
    38    10    12   ar
    39    29    24   ar
    40    12     3   ar
    41    39    34   ar
    42    21    15    1
    43    12     6   ar
    44    30    33    1
    45    19    22    1
    46    11    13    1
    47    11    14    1
