@<TRIPOS>MOLECULE
*****
 29 32 0 0 0
SMALL
GASTEIGER

@<TRIPOS>ATOM
      1 C         139.3106  139.9489  165.9030 C.3     1  UNL1        0.1910
      2 O         139.3001  140.7585  164.6403 O.3     1  UNL1       -0.3500
      3 C         140.0278  142.0690  164.5836 C.3     1  UNL1        0.1145
      4 C         140.7555  143.3794  164.5268 C.3     1  UNL1        0.0463
      5 C         140.7449  144.1891  163.2642 C.3     1  UNL1        0.0746
      6 N         140.0067  143.6883  162.0583 N.3     1  UNL1       -0.2722
      7 C         139.2790  142.3779  162.1150 C.3     1  UNL1        0.0746
      8 C         139.2896  141.5683  163.3776 C.3     1  UNL1        0.0463
      9 C         140.7660  142.5698  165.7895 C.3     1  UNL1        0.1254
     10 N         140.7765  141.7600  167.0522 N.am    1  UNL1       -0.2543
     11 C         140.0489  140.4496  167.1089 C.2     1  UNL1        0.2566
     12 O         140.0594  139.6399  168.3716 O.2     1  UNL1       -0.2719
     13 C         141.5148  142.2608  168.2581 C.ar    1  UNL1        0.0540
     14 C         142.9409  141.8559  168.4861 C.ar    1  UNL1        0.0149
     15 C         143.6792  142.3567  169.6920 C.ar    1  UNL1        0.0013
     16 C         142.9912  143.2623  170.6700 C.ar    1  UNL1        0.0001
     17 C         141.5650  143.6673  170.4420 C.ar    1  UNL1        0.0013
     18 C         140.8267  143.1665  169.2361 C.ar    1  UNL1        0.0149
     19 C         138.9132  137.5540  164.9774 C.3     1  UNL1        0.0030
     20 C         138.5829  138.6384  165.9597 C.3     1  UNL1        0.0362
     21 C         137.5250  138.4123  166.9988 C.3     1  UNL1        0.0030
     22 C         139.9962  144.4980  160.7956 C.3     1  UNL1        0.0768
     23 C         141.2857  144.8204  160.1006 C.3     1  UNL1        0.0437
     24 C         141.2935  145.1030  158.6274 C.ar    1  UNL1       -0.0208
     25 C         142.3562  144.5043  157.7545 C.ar    1  UNL1       -0.0042
     26 C         142.3640  144.7869  156.2814 C.ar    1  UNL1       -0.0003
     27 C         141.3090  145.6683  155.6813 C.ar    1  UNL1       -0.0000
     28 C         140.2463  146.2671  156.5542 C.ar    1  UNL1       -0.0003
     29 C         140.2385  145.9844  158.0273 C.ar    1  UNL1       -0.0042
@<TRIPOS>BOND
     1    19    20    1
     2    20    21    1
     3    20     1    1
     4     1     2    1
     5     2     3    1
     6     3     4    1
     7     4     5    1
     8     5     6    1
     9     6    22    1
    10    22    23    1
    11    23    24    1
    12    24    25   ar
    13    25    26   ar
    14    26    27   ar
    15    27    28   ar
    16    28    29   ar
    17     6     7    1
    18     7     8    1
    19     3     9    1
    20     9    10    1
    21    10    13    1
    22    13    14   ar
    23    14    15   ar
    24    15    16   ar
    25    16    17   ar
    26    17    18   ar
    27    10    11   am
    28    11    12    2
    29    11     1    1
    30     8     3    1
    31    18    13   ar
    32    29    24   ar
@<TRIPOS>MOLECULE
*****
 29 32 0 0 0
SMALL
GASTEIGER

@<TRIPOS>ATOM
      1 C         140.5370  139.9752  164.4988 C.3     1  UNL1        0.1910
      2 O         140.4357  140.9882  163.3972 O.3     1  UNL1       -0.3500
      3 C         140.7277  142.4326  163.6772 C.3     1  UNL1        0.1145
      4 C         141.0198  143.8770  163.9573 C.3     1  UNL1        0.0463
      5 C         140.9185  144.8899  162.8557 C.3     1  UNL1        0.0746
      6 N         140.5252  144.4585  161.4740 N.3     1  UNL1       -0.2722
      7 C         140.2331  143.0141  161.1939 C.3     1  UNL1        0.0746
      8 C         140.3344  142.0012  162.2955 C.3     1  UNL1        0.0463
      9 C         141.1211  142.8640  165.0590 C.3     1  UNL1        0.1254
     10 N         141.2223  141.8510  166.1606 N.am    1  UNL1       -0.2543
     11 C         140.9303  140.4066  165.8805 C.2     1  UNL1        0.2566
     12 O         141.0316  139.3936  166.9822 O.2     1  UNL1       -0.2719
     13 C         141.6157  142.2824  167.5424 C.ar    1  UNL1        0.0540
     14 C         140.6015  142.9172  168.4471 C.ar    1  UNL1        0.0149
     15 C         140.9948  143.3486  169.8288 C.ar    1  UNL1        0.0013
     16 C         142.4023  143.1452  170.3058 C.ar    1  UNL1        0.0001
     17 C         143.4166  142.5104  169.4011 C.ar    1  UNL1        0.0013
     18 C         143.0232  142.0790  168.0194 C.ar    1  UNL1        0.0149
     19 C         138.8648  137.9875  164.4429 C.3     1  UNL1        0.0030
     20 C         140.2449  138.5308  164.2187 C.3     1  UNL1        0.0362
     21 C         141.3329  137.6297  163.7145 C.3     1  UNL1        0.0030
     22 C         140.4239  145.4715  160.3723 C.3     1  UNL1        0.0768
     23 C         141.0337  145.1855  159.0320 C.3     1  UNL1        0.0437
     24 C         140.1882  145.2487  157.7945 C.ar    1  UNL1       -0.0208
     25 C         139.5776  143.9965  157.2387 C.ar    1  UNL1       -0.0042
     26 C         138.7322  144.0597  156.0012 C.ar    1  UNL1       -0.0003
     27 C         138.4975  145.3751  155.3196 C.ar    1  UNL1       -0.0000
     28 C         139.1082  146.6273  155.8755 C.ar    1  UNL1       -0.0003
     29 C         139.9535  146.5641  157.1129 C.ar    1  UNL1       -0.0042
@<TRIPOS>BOND
     1    19    20    1
     2    20    21    1
     3    20     1    1
     4     1     2    1
     5     2     3    1
     6     3     4    1
     7     4     5    1
     8     5     6    1
     9     6    22    1
    10    22    23    1
    11    23    24    1
    12    24    25   ar
    13    25    26   ar
    14    26    27   ar
    15    27    28   ar
    16    28    29   ar
    17     6     7    1
    18     7     8    1
    19     3     9    1
    20     9    10    1
    21    10    13    1
    22    13    14   ar
    23    14    15   ar
    24    15    16   ar
    25    16    17   ar
    26    17    18   ar
    27    10    11   am
    28    11    12    2
    29    11     1    1
    30     8     3    1
    31    18    13   ar
    32    29    24   ar
@<TRIPOS>MOLECULE
*****
 29 32 0 0 0
SMALL
GASTEIGER

@<TRIPOS>ATOM
      1 C         139.3004  139.9478  165.9095 C.3     1  UNL1        0.1910
      2 O         139.2935  140.7520  164.6434 O.3     1  UNL1       -0.3500
      3 C         140.0287  142.0581  164.5803 C.3     1  UNL1        0.1145
      4 C         140.7638  143.3640  164.5174 C.3     1  UNL1        0.0463
      5 C         140.7569  144.1682  163.2512 C.3     1  UNL1        0.0746
      6 N         140.0148  143.6665  162.0480 N.3     1  UNL1       -0.2722
      7 C         139.2797  142.3605  162.1110 C.3     1  UNL1        0.0746
      8 C         139.2866  141.5563  163.3772 C.3     1  UNL1        0.0463
      9 C         140.7707  142.5598  165.7835 C.3     1  UNL1        0.1254
     10 N         140.7776  141.7556  167.0497 N.am    1  UNL1       -0.2543
     11 C         140.0425  140.4496  167.1127 C.2     1  UNL1        0.2566
     12 O         140.0494  139.6453  168.3789 O.2     1  UNL1       -0.2719
     13 C         141.5196  142.2573  168.2529 C.ar    1  UNL1        0.0540
     14 C         142.9485  141.8579  168.4732 C.ar    1  UNL1        0.0149
     15 C         143.6906  142.3596  169.6764 C.ar    1  UNL1        0.0013
     16 C         143.0037  143.2609  170.6592 C.ar    1  UNL1        0.0001
     17 C         141.5747  143.6604  170.4389 C.ar    1  UNL1        0.0013
     18 C         140.8327  143.1586  169.2357 C.ar    1  UNL1        0.0149
     19 C         137.5230  138.4180  167.0278 C.3     1  UNL1        0.0030
     20 C         138.5653  138.6418  165.9725 C.3     1  UNL1        0.0362
     21 C         138.8724  137.5596  164.9803 C.3     1  UNL1        0.0030
     22 C         140.0080  144.4707  160.7818 C.3     1  UNL1        0.0768
     23 C         141.2545  144.5775  159.9544 C.3     1  UNL1        0.0437
     24 C         142.1167  143.3693  159.7377 C.ar    1  UNL1       -0.0208
     25 C         143.3183  143.1400  160.6058 C.ar    1  UNL1       -0.0042
     26 C         144.1804  141.9318  160.3890 C.ar    1  UNL1       -0.0003
     27 C         143.8410  140.9530  159.3043 C.ar    1  UNL1       -0.0000
     28 C         142.6394  141.1823  158.4363 C.ar    1  UNL1       -0.0003
     29 C         141.7773  142.3905  158.6530 C.ar    1  UNL1       -0.0042
@<TRIPOS>BOND
     1    19    20    1
     2    20    21    1
     3    20     1    1
     4     1     2    1
     5     2     3    1
     6     3     4    1
     7     4     5    1
     8     5     6    1
     9     6    22    1
    10    22    23    1
    11    23    24    1
    12    24    25   ar
    13    25    26   ar
    14    26    27   ar
    15    27    28   ar
    16    28    29   ar
    17     6     7    1
    18     7     8    1
    19     3     9    1
    20     9    10    1
    21    10    13    1
    22    13    14   ar
    23    14    15   ar
    24    15    16   ar
    25    16    17   ar
    26    17    18   ar
    27    10    11   am
    28    11    12    2
    29    11     1    1
    30     8     3    1
    31    18    13   ar
    32    29    24   ar
@<TRIPOS>MOLECULE
*****
 29 32 0 0 0
SMALL
GASTEIGER

@<TRIPOS>ATOM
      1 C         143.5273  140.6424  162.8722 C.3     1  UNL1        0.1910
      2 O         143.3432  139.8160  161.6340 O.3     1  UNL1       -0.3500
      3 C         142.0375  139.8506  160.8964 C.3     1  UNL1        0.1145
      4 C         140.7318  139.8852  160.1590 C.3     1  UNL1        0.0463
      5 C         140.5477  139.0588  158.9208 C.3     1  UNL1        0.0746
      6 N         141.6693  138.1979  158.4200 N.3     1  UNL1       -0.2722
      7 C         142.9750  138.1633  159.1575 C.3     1  UNL1        0.0746
      8 C         143.1591  138.9896  160.3957 C.3     1  UNL1        0.0463
      9 C         140.9159  140.7116  161.3972 C.3     1  UNL1        0.1254
     10 N         141.1000  141.5380  162.6354 N.am    1  UNL1       -0.2543
     11 C         142.4057  141.5034  163.3729 C.2     1  UNL1        0.2566
     12 O         142.5899  142.3298  164.6112 O.2     1  UNL1       -0.2719
     13 C         139.9784  142.3990  163.1362 C.ar    1  UNL1        0.0540
     14 C         138.8453  141.7837  163.9026 C.ar    1  UNL1        0.0149
     15 C         137.7237  142.6447  164.4034 C.ar    1  UNL1        0.0013
     16 C         137.7352  144.1209  164.1376 C.ar    1  UNL1        0.0001
     17 C         138.8683  144.7362  163.3711 C.ar    1  UNL1        0.0013
     18 C         139.9899  143.8752  162.8704 C.ar    1  UNL1        0.0149
     19 C         145.7900  141.7572  163.4948 C.3     1  UNL1        0.0030
     20 C         144.8331  140.6078  163.6097 C.3     1  UNL1        0.0362
     21 C         145.1819  139.4239  164.4621 C.3     1  UNL1        0.0030
     22 C         141.4851  137.3715  157.1818 C.3     1  UNL1        0.0768
     23 C         142.6469  136.6210  156.6013 C.3     1  UNL1        0.0437
     24 C         142.5690  135.1327  156.4315 C.ar    1  UNL1       -0.0208
     25 C         143.4297  134.2360  157.2712 C.ar    1  UNL1       -0.0042
     26 C         143.3518  132.7477  157.1013 C.ar    1  UNL1       -0.0003
     27 C         142.4132  132.1561  156.0918 C.ar    1  UNL1       -0.0000
     28 C         141.5526  133.0528  155.2521 C.ar    1  UNL1       -0.0003
     29 C         141.6305  134.5411  155.4219 C.ar    1  UNL1       -0.0042
@<TRIPOS>BOND
     1    19    20    1
     2    20    21    1
     3    20     1    1
     4     1     2    1
     5     2     3    1
     6     3     4    1
     7     4     5    1
     8     5     6    1
     9     6    22    1
    10    22    23    1
    11    23    24    1
    12    24    25   ar
    13    25    26   ar
    14    26    27   ar
    15    27    28   ar
    16    28    29   ar
    17     6     7    1
    18     7     8    1
    19     3     9    1
    20     9    10    1
    21    10    13    1
    22    13    14   ar
    23    14    15   ar
    24    15    16   ar
    25    16    17   ar
    26    17    18   ar
    27    10    11   am
    28    11    12    2
    29    11     1    1
    30     8     3    1
    31    18    13   ar
    32    29    24   ar
@<TRIPOS>MOLECULE
*****
 29 32 0 0 0
SMALL
GASTEIGER

@<TRIPOS>ATOM
      1 C         143.0771  142.0402  163.9207 C.3     1  UNL1        0.1910
      2 O         142.6206  142.6934  162.6500 O.3     1  UNL1       -0.3500
      3 C         141.2686  142.3719  162.0851 C.3     1  UNL1        0.1145
      4 C         139.9168  142.0503  161.5202 C.3     1  UNL1        0.0463
      5 C         139.4603  142.7035  160.2495 C.3     1  UNL1        0.0746
      6 N         140.3556  143.6782  159.5435 N.3     1  UNL1       -0.2722
      7 C         141.7074  143.9998  160.1084 C.3     1  UNL1        0.0746
      8 C         142.1639  143.3466  161.3791 C.3     1  UNL1        0.0463
      9 C         140.3733  141.3972  162.7910 C.3     1  UNL1        0.1254
     10 N         140.8299  140.7440  164.0618 N.am    1  UNL1       -0.2543
     11 C         142.1818  141.0655  164.6267 C.2     1  UNL1        0.2566
     12 O         142.6384  140.4123  165.8975 O.2     1  UNL1       -0.2719
     13 C         139.9346  139.7693  164.7678 C.ar    1  UNL1        0.0540
     14 C         139.8946  138.3350  164.3304 C.ar    1  UNL1        0.0149
     15 C         138.9993  137.3603  165.0364 C.ar    1  UNL1        0.0013
     16 C         138.1440  137.8198  166.1797 C.ar    1  UNL1        0.0001
     17 C         138.1840  139.2541  166.6171 C.ar    1  UNL1        0.0013
     18 C         139.0793  140.2289  165.9112 C.ar    1  UNL1        0.0149
     19 C         145.6311  141.5802  164.0451 C.3     1  UNL1        0.0030
     20 C         144.4290  142.3618  164.4856 C.3     1  UNL1        0.0362
     21 C         144.5788  143.4649  165.4909 C.3     1  UNL1        0.0030
     22 C         139.8989  144.3314  158.2727 C.3     1  UNL1        0.0768
     23 C         140.2265  145.7713  158.0098 C.3     1  UNL1        0.0437
     24 C         140.2291  146.2955  156.6043 C.ar    1  UNL1       -0.0208
     25 C         139.2722  147.3800  156.2066 C.ar    1  UNL1       -0.0042
     26 C         139.2748  147.9041  154.8012 C.ar    1  UNL1       -0.0003
     27 C         140.2342  147.3436  153.7935 C.ar    1  UNL1       -0.0000
     28 C         141.1911  146.2591  154.1912 C.ar    1  UNL1       -0.0003
     29 C         141.1885  145.7351  155.5966 C.ar    1  UNL1       -0.0042
@<TRIPOS>BOND
     1    19    20    1
     2    20    21    1
     3    20     1    1
     4     1     2    1
     5     2     3    1
     6     3     4    1
     7     4     5    1
     8     5     6    1
     9     6    22    1
    10    22    23    1
    11    23    24    1
    12    24    25   ar
    13    25    26   ar
    14    26    27   ar
    15    27    28   ar
    16    28    29   ar
    17     6     7    1
    18     7     8    1
    19     3     9    1
    20     9    10    1
    21    10    13    1
    22    13    14   ar
    23    14    15   ar
    24    15    16   ar
    25    16    17   ar
    26    17    18   ar
    27    10    11   am
    28    11    12    2
    29    11     1    1
    30     8     3    1
    31    18    13   ar
    32    29    24   ar
@<TRIPOS>MOLECULE
*****
 29 32 0 0 0
SMALL
GASTEIGER

@<TRIPOS>ATOM
      1 C         142.0872  143.7789  158.7458 C.3     1  UNL1        0.1910
      2 O         142.2777  143.5670  160.2185 O.3     1  UNL1       -0.3500
      3 C         143.5342  142.9250  160.7275 C.3     1  UNL1        0.1145
      4 C         144.7908  142.2831  161.2364 C.3     1  UNL1        0.0463
      5 C         144.9813  142.0712  162.7091 C.3     1  UNL1        0.0746
      6 N         143.9153  142.5012  163.6728 N.3     1  UNL1       -0.2722
      7 C         142.6588  143.1431  163.1639 C.3     1  UNL1        0.0746
      8 C         142.4683  143.3550  161.6912 C.3     1  UNL1        0.0463
      9 C         144.6002  142.4950  159.7638 C.3     1  UNL1        0.1254
     10 N         144.4097  142.7070  158.2911 N.am    1  UNL1       -0.2543
     11 C         143.1532  143.3489  157.7821 C.2     1  UNL1        0.2566
     12 O         142.9626  143.5608  156.3094 O.2     1  UNL1       -0.2719
     13 C         145.4757  142.2769  157.3273 C.ar    1  UNL1        0.0540
     14 C         146.8337  142.9116  157.3790 C.ar    1  UNL1        0.0149
     15 C         147.8997  142.4816  156.4153 C.ar    1  UNL1        0.0013
     16 C         147.6076  141.4169  155.3999 C.ar    1  UNL1        0.0001
     17 C         146.2495  140.7821  155.3482 C.ar    1  UNL1        0.0013
     18 C         145.1835  141.2122  156.3119 C.ar    1  UNL1        0.0149
     19 C         139.5715  143.6143  158.1176 C.3     1  UNL1        0.0030
     20 C         140.8306  144.4208  158.2368 C.3     1  UNL1        0.0362
     21 C         140.8331  145.8693  157.8471 C.3     1  UNL1        0.0030
     22 C         144.1059  142.2893  165.1455 C.3     1  UNL1        0.0768
     23 C         142.9481  142.4597  166.0838 C.3     1  UNL1        0.0437
     24 C         142.9068  141.6914  167.3715 C.ar    1  UNL1       -0.0208
     25 C         142.5254  140.2408  167.3675 C.ar    1  UNL1       -0.0042
     26 C         142.4842  139.4726  168.6551 C.ar    1  UNL1       -0.0003
     27 C         142.8244  140.1550  169.9468 C.ar    1  UNL1       -0.0000
     28 C         143.2057  141.6057  169.9509 C.ar    1  UNL1       -0.0003
     29 C         143.2469  142.3739  168.6632 C.ar    1  UNL1       -0.0042
@<TRIPOS>BOND
     1    19    20    1
     2    20    21    1
     3    20     1    1
     4     1     2    1
     5     2     3    1
     6     3     4    1
     7     4     5    1
     8     5     6    1
     9     6    22    1
    10    22    23    1
    11    23    24    1
    12    24    25   ar
    13    25    26   ar
    14    26    27   ar
    15    27    28   ar
    16    28    29   ar
    17     6     7    1
    18     7     8    1
    19     3     9    1
    20     9    10    1
    21    10    13    1
    22    13    14   ar
    23    14    15   ar
    24    15    16   ar
    25    16    17   ar
    26    17    18   ar
    27    10    11   am
    28    11    12    2
    29    11     1    1
    30     8     3    1
    31    18    13   ar
    32    29    24   ar
@<TRIPOS>MOLECULE
*****
 29 32 0 0 0
SMALL
GASTEIGER

@<TRIPOS>ATOM
      1 C         143.7039  139.9352  157.1431 C.3     1  UNL1        0.1910
      2 O         143.6770  140.1092  158.6327 O.3     1  UNL1       -0.3500
      3 C         143.2642  138.9675  159.5139 C.3     1  UNL1        0.1145
      4 C         142.8514  137.8260  160.3949 C.3     1  UNL1        0.0463
      5 C         142.8245  138.0000  161.8845 C.3     1  UNL1        0.0746
      6 N         143.2104  139.3156  162.4930 N.3     1  UNL1       -0.2722
      7 C         143.6232  140.4572  161.6120 C.3     1  UNL1        0.0746
      8 C         143.6501  140.2831  160.1224 C.3     1  UNL1        0.0463
      9 C         142.8783  137.6519  158.9053 C.3     1  UNL1        0.1254
     10 N         142.9053  137.4780  157.4156 N.am    1  UNL1       -0.2543
     11 C         143.3181  138.6195  156.5346 C.2     1  UNL1        0.2566
     12 O         143.3450  138.4456  155.0449 O.2     1  UNL1       -0.2719
     13 C         142.5194  136.1624  156.8071 C.ar    1  UNL1        0.0540
     14 C         143.2470  134.9114  157.2015 C.ar    1  UNL1        0.0149
     15 C         142.8612  133.5958  156.5930 C.ar    1  UNL1        0.0013
     16 C         141.7477  133.5312  155.5901 C.ar    1  UNL1        0.0001
     17 C         141.0200  134.7822  155.1956 C.ar    1  UNL1        0.0013
     18 C         141.4058  136.0978  155.8041 C.ar    1  UNL1        0.0149
     19 C         145.5542  141.2351  155.8638 C.3     1  UNL1        0.0030
     20 C         144.1167  141.0768  156.2619 C.3     1  UNL1        0.0362
     21 C         143.0920  142.0600  155.7790 C.3     1  UNL1        0.0030
     22 C         143.1835  139.4896  163.9827 C.3     1  UNL1        0.0768
     23 C         142.5790  138.4264  164.8512 C.3     1  UNL1        0.0437
     24 C         141.1423  138.5276  165.2706 C.ar    1  UNL1       -0.0208
     25 C         140.7203  139.5788  166.2538 C.ar    1  UNL1       -0.0042
     26 C         139.2837  139.6800  166.6731 C.ar    1  UNL1       -0.0003
     27 C         138.2691  138.7299  166.1093 C.ar    1  UNL1       -0.0000
     28 C         138.6912  137.6786  165.1261 C.ar    1  UNL1       -0.0003
     29 C         140.1278  137.5775  164.7067 C.ar    1  UNL1       -0.0042
@<TRIPOS>BOND
     1    19    20    1
     2    20    21    1
     3    20     1    1
     4     1     2    1
     5     2     3    1
     6     3     4    1
     7     4     5    1
     8     5     6    1
     9     6    22    1
    10    22    23    1
    11    23    24    1
    12    24    25   ar
    13    25    26   ar
    14    26    27   ar
    15    27    28   ar
    16    28    29   ar
    17     6     7    1
    18     7     8    1
    19     3     9    1
    20     9    10    1
    21    10    13    1
    22    13    14   ar
    23    14    15   ar
    24    15    16   ar
    25    16    17   ar
    26    17    18   ar
    27    10    11   am
    28    11    12    2
    29    11     1    1
    30     8     3    1
    31    18    13   ar
    32    29    24   ar
@<TRIPOS>MOLECULE
*****
 29 32 0 0 0
SMALL
GASTEIGER

@<TRIPOS>ATOM
      1 C         141.2081  138.7728  162.3575 C.3     1  UNL1        0.1910
      2 O         141.6058  138.4449  160.9488 O.3     1  UNL1       -0.3500
      3 C         142.3946  139.4339  160.1427 C.3     1  UNL1        0.1145
      4 C         143.1835  140.4228  159.3366 C.3     1  UNL1        0.0463
      5 C         143.5811  140.0949  157.9280 C.3     1  UNL1        0.0746
      6 N         143.1900  138.7781  157.3254 N.3     1  UNL1       -0.2722
      7 C         142.4012  137.7892  158.1315 C.3     1  UNL1        0.0746
      8 C         142.0035  138.1171  159.5401 C.3     1  UNL1        0.0463
      9 C         142.7858  140.7506  160.7453 C.3     1  UNL1        0.1254
     10 N         142.3881  141.0785  162.1540 N.am    1  UNL1       -0.2543
     11 C         141.5992  140.0896  162.9600 C.2     1  UNL1        0.2566
     12 O         141.2015  140.4174  164.3688 O.2     1  UNL1       -0.2719
     13 C         142.7792  142.3953  162.7566 C.ar    1  UNL1        0.0540
     14 C         141.9784  143.6266  162.4526 C.ar    1  UNL1        0.0149
     15 C         142.3695  144.9434  163.0552 C.ar    1  UNL1        0.0013
     16 C         143.5615  145.0288  163.9617 C.ar    1  UNL1        0.0001
     17 C         144.3624  143.7974  164.2657 C.ar    1  UNL1        0.0013
     18 C         143.9713  142.4807  163.6631 C.ar    1  UNL1        0.0149
     19 C         141.1127  136.9119  164.1680 C.3     1  UNL1        0.0030
     20 C         140.4192  137.7839  163.1636 C.3     1  UNL1        0.0362
     21 C         138.9370  137.6669  162.9653 C.3     1  UNL1        0.0030
     22 C         143.5877  138.4503  155.9167 C.3     1  UNL1        0.0768
     23 C         144.3196  137.1747  155.6216 C.3     1  UNL1        0.0437
     24 C         143.5566  135.9490  155.2147 C.ar    1  UNL1       -0.0208
     25 C         142.5752  136.0180  154.0824 C.ar    1  UNL1       -0.0042
     26 C         141.8121  134.7923  153.6756 C.ar    1  UNL1       -0.0003
     27 C         142.0305  133.4977  154.4011 C.ar    1  UNL1       -0.0000
     28 C         143.0119  133.4287  155.5334 C.ar    1  UNL1       -0.0003
     29 C         143.7749  134.6544  155.9402 C.ar    1  UNL1       -0.0042
@<TRIPOS>BOND
     1    19    20    1
     2    20    21    1
     3    20     1    1
     4     1     2    1
     5     2     3    1
     6     3     4    1
     7     4     5    1
     8     5     6    1
     9     6    22    1
    10    22    23    1
    11    23    24    1
    12    24    25   ar
    13    25    26   ar
    14    26    27   ar
    15    27    28   ar
    16    28    29   ar
    17     6     7    1
    18     7     8    1
    19     3     9    1
    20     9    10    1
    21    10    13    1
    22    13    14   ar
    23    14    15   ar
    24    15    16   ar
    25    16    17   ar
    26    17    18   ar
    27    10    11   am
    28    11    12    2
    29    11     1    1
    30     8     3    1
    31    18    13   ar
    32    29    24   ar
@<TRIPOS>MOLECULE
*****
 29 32 0 0 0
SMALL
GASTEIGER

@<TRIPOS>ATOM
      1 C         143.4401  142.7391  163.2134 C.3     1  UNL1        0.1910
      2 O         143.9454  142.6523  161.8038 O.3     1  UNL1       -0.3500
      3 C         143.5597  141.4890  160.9390 C.3     1  UNL1        0.1145
      4 C         143.1739  140.3257  160.0742 C.3     1  UNL1        0.0463
      5 C         143.6793  140.2389  158.6646 C.3     1  UNL1        0.0746
      6 N         144.5704  141.3155  158.1198 N.3     1  UNL1       -0.2722
      7 C         144.9562  142.4788  158.9845 C.3     1  UNL1        0.0746
      8 C         144.4508  142.5655  160.3941 C.3     1  UNL1        0.0463
      9 C         142.6685  140.4124  161.4838 C.3     1  UNL1        0.1254
     10 N         142.1631  140.4992  162.8935 N.am    1  UNL1       -0.2543
     11 C         142.5489  141.6626  163.7582 C.2     1  UNL1        0.2566
     12 O         142.0435  141.7494  165.1679 O.2     1  UNL1       -0.2719
     13 C         141.2719  139.4227  163.4383 C.ar    1  UNL1        0.0540
     14 C         141.8709  138.1805  164.0283 C.ar    1  UNL1        0.0149
     15 C         140.9797  137.1039  164.5731 C.ar    1  UNL1        0.0013
     16 C         139.4896  137.2696  164.5280 C.ar    1  UNL1        0.0001
     17 C         138.8906  138.5119  163.9381 C.ar    1  UNL1        0.0013
     18 C         139.7818  139.5884  163.3932 C.ar    1  UNL1        0.0149
     19 C         143.3628  145.2850  163.7258 C.3     1  UNL1        0.0030
     20 C         143.8258  143.9025  164.0782 C.3     1  UNL1        0.0362
     21 C         144.6746  143.6833  165.2954 C.3     1  UNL1        0.0030
     22 C         145.0758  141.2287  156.7101 C.3     1  UNL1        0.0768
     23 C         145.4429  142.4786  155.9666 C.3     1  UNL1        0.0437
     24 C         146.7442  142.5550  155.2244 C.ar    1  UNL1       -0.0208
     25 C         147.9255  141.7613  155.6980 C.ar    1  UNL1       -0.0042
     26 C         149.2267  141.8377  154.9557 C.ar    1  UNL1       -0.0003
     27 C         149.3466  142.7079  153.7399 C.ar    1  UNL1       -0.0000
     28 C         148.1653  143.5017  153.2662 C.ar    1  UNL1       -0.0003
     29 C         146.8641  143.4253  154.0085 C.ar    1  UNL1       -0.0042
@<TRIPOS>BOND
     1    19    20    1
     2    20    21    1
     3    20     1    1
     4     1     2    1
     5     2     3    1
     6     3     4    1
     7     4     5    1
     8     5     6    1
     9     6    22    1
    10    22    23    1
    11    23    24    1
    12    24    25   ar
    13    25    26   ar
    14    26    27   ar
    15    27    28   ar
    16    28    29   ar
    17     6     7    1
    18     7     8    1
    19     3     9    1
    20     9    10    1
    21    10    13    1
    22    13    14   ar
    23    14    15   ar
    24    15    16   ar
    25    16    17   ar
    26    17    18   ar
    27    10    11   am
    28    11    12    2
    29    11     1    1
    30     8     3    1
    31    18    13   ar
    32    29    24   ar
