@<TRIPOS>MOLECULE
*****
 26 28 0 0 0
SMALL
GASTEIGER

@<TRIPOS>ATOM
      1 N         138.5191  143.4205  162.5644 N.3     1  UNL1       -0.2700
      2 C         137.6424  142.5015  163.3625 C.3     1  UNL1        0.0897
      3 C         137.3434  141.1219  162.8551 C.3     1  UNL1        0.0897
      4 N         137.9212  140.6614  161.5497 N.3     1  UNL1       -0.2700
      5 C         138.7978  141.5804  160.7517 C.3     1  UNL1        0.0897
      6 C         139.0968  142.9599  161.2590 C.3     1  UNL1        0.0897
      7 C         138.8180  144.8001  163.0718 C.3     1  UNL1        0.0769
      8 C         139.6302  144.9805  164.3199 C.3     1  UNL1        0.0437
      9 C         143.7835  143.2665  164.5694 C.ar    1  UNL1        0.1387
     10 C         142.6364  142.5506  165.2188 C.ar    1  UNL1        0.0366
     11 C         141.2520  143.1220  165.1357 C.ar    1  UNL1       -0.0011
     12 C         141.0146  144.4092  164.4031 C.ar    1  UNL1       -0.0206
     13 C         142.1616  145.1250  163.7536 C.ar    1  UNL1       -0.0011
     14 C         143.5461  144.5537  163.8368 C.ar    1  UNL1        0.0366
     15 O         145.1679  142.6951  164.6525 O.3     1  UNL1       -0.4724
     16 C         145.6385  141.7158  163.6184 C.3     1  UNL1        0.2434
     17 F         145.3070  139.2173  164.2488 F       1  UNL1       -0.2302
     18 C         144.9157  140.4144  163.4340 C.3     1  UNL1        0.2403
     19 C         137.6222  139.2818  161.0423 C.3     1  UNL1        0.0769
     20 C         137.9226  138.0867  161.8976 C.3     1  UNL1        0.0437
     21 C         139.2168  138.0107  162.6522 C.ar    1  UNL1       -0.0208
     22 C         140.5178  137.9653  161.9071 C.ar    1  UNL1       -0.0042
     23 C         141.8120  137.8893  162.6617 C.ar    1  UNL1       -0.0003
     24 C         141.8051  137.8587  164.1613 C.ar    1  UNL1       -0.0000
     25 C         140.5040  137.9041  164.9065 C.ar    1  UNL1       -0.0003
     26 C         139.2098  137.9801  164.1519 C.ar    1  UNL1       -0.0042
@<TRIPOS>BOND
     1    17    18    1
     2    18    16    1
     3    16    15    1
     4    15     9    1
     5     9    10   ar
     6    10    11   ar
     7    11    12   ar
     8    12     8    1
     9     8     7    1
    10     7     1    1
    11     1     2    1
    12     2     3    1
    13     3     4    1
    14     4    19    1
    15    19    20    1
    16    20    21    1
    17    21    22   ar
    18    22    23   ar
    19    23    24   ar
    20    24    25   ar
    21    25    26   ar
    22     4     5    1
    23     5     6    1
    24    12    13   ar
    25    13    14   ar
    26    14     9   ar
    27     6     1    1
    28    26    21   ar
@<TRIPOS>MOLECULE
*****
 26 28 0 0 0
SMALL
GASTEIGER

@<TRIPOS>ATOM
      1 N         144.5395  140.5583  163.3147 N.3     1  UNL1       -0.2700
      2 C         143.9990  140.5983  161.9160 C.3     1  UNL1        0.0897
      3 C         142.9467  139.6177  161.4903 C.3     1  UNL1        0.0897
      4 N         142.4350  138.5971  162.4633 N.3     1  UNL1       -0.2700
      5 C         142.9754  138.5572  163.8619 C.3     1  UNL1        0.0897
      6 C         144.0277  139.5378  164.2876 C.3     1  UNL1        0.0897
      7 C         145.5917  141.5389  163.7404 C.3     1  UNL1        0.0769
      8 C         145.2168  142.7241  164.5798 C.3     1  UNL1        0.0437
      9 C         141.1182  144.5431  164.2014 C.ar    1  UNL1        0.1387
     10 C         141.3216  143.3220  165.0485 C.ar    1  UNL1        0.0366
     11 C         142.6877  142.7157  165.1746 C.ar    1  UNL1       -0.0011
     12 C         143.8506  143.3304  164.4537 C.ar    1  UNL1       -0.0206
     13 C         143.6473  144.5515  163.6065 C.ar    1  UNL1       -0.0011
     14 C         142.2811  145.1578  163.4804 C.ar    1  UNL1        0.0366
     15 O         139.7520  145.1494  164.0752 O.3     1  UNL1       -0.4724
     16 C         138.8842  144.8052  162.9012 C.3     1  UNL1        0.2434
     17 F         137.4979  142.7480  162.1290 F       1  UNL1       -0.2302
     18 C         137.7101  143.8889  163.0796 C.3     1  UNL1        0.2403
     19 C         141.3827  137.6166  162.0376 C.3     1  UNL1        0.0769
     20 C         139.9350  138.0078  162.0723 C.3     1  UNL1        0.0437
     21 C         139.3284  138.5261  163.3425 C.ar    1  UNL1       -0.0208
     22 C         138.9425  139.9713  163.4541 C.ar    1  UNL1       -0.0042
     23 C         138.3359  140.4896  164.7243 C.ar    1  UNL1       -0.0003
     24 C         138.1153  139.5628  165.8829 C.ar    1  UNL1       -0.0000
     25 C         138.5013  138.1176  165.7713 C.ar    1  UNL1       -0.0003
     26 C         139.1078  137.5992  164.5011 C.ar    1  UNL1       -0.0042
@<TRIPOS>BOND
     1    17    18    1
     2    18    16    1
     3    16    15    1
     4    15     9    1
     5     9    10   ar
     6    10    11   ar
     7    11    12   ar
     8    12     8    1
     9     8     7    1
    10     7     1    1
    11     1     2    1
    12     2     3    1
    13     3     4    1
    14     4    19    1
    15    19    20    1
    16    20    21    1
    17    21    22   ar
    18    22    23   ar
    19    23    24   ar
    20    24    25   ar
    21    25    26   ar
    22     4     5    1
    23     5     6    1
    24    12    13   ar
    25    13    14   ar
    26    14     9   ar
    27     6     1    1
    28    26    21   ar
@<TRIPOS>MOLECULE
*****
 26 28 0 0 0
SMALL
GASTEIGER

@<TRIPOS>ATOM
      1 N         142.0687  137.8559  164.0729 N.3     1  UNL1       -0.2700
      2 C         142.4701  138.3549  162.7164 C.3     1  UNL1        0.0897
      3 C         143.5753  139.3603  162.5839 C.3     1  UNL1        0.0897
      4 N         144.2792  139.8667  163.8080 N.3     1  UNL1       -0.2700
      5 C         143.8779  139.3678  165.1644 C.3     1  UNL1        0.0897
      6 C         142.7726  138.3624  165.2969 C.3     1  UNL1        0.0897
      7 C         140.9635  136.8505  164.2054 C.3     1  UNL1        0.0769
      8 C         139.6286  137.2701  164.7458 C.3     1  UNL1        0.0437
      9 C         137.7934  141.1639  163.4341 C.ar    1  UNL1        0.1387
     10 C         138.3020  141.0093  164.8367 C.ar    1  UNL1        0.0366
     11 C         138.9137  139.7114  165.2739 C.ar    1  UNL1       -0.0011
     12 C         139.0169  138.5681  164.3086 C.ar    1  UNL1       -0.0206
     13 C         138.5083  138.7226  162.9059 C.ar    1  UNL1       -0.0011
     14 C         137.8966  140.0205  162.4687 C.ar    1  UNL1        0.0366
     15 O         137.1816  142.4618  162.9968 O.3     1  UNL1       -0.4724
     16 C         137.8524  143.7595  163.3374 C.3     1  UNL1        0.2434
     17 F         138.7325  145.3207  165.2184 F       1  UNL1       -0.2302
     18 C         137.7219  144.3317  164.7178 C.3     1  UNL1        0.2403
     19 C         145.3845  140.8721  163.6755 C.3     1  UNL1        0.0769
     20 C         145.2739  142.2028  164.3590 C.3     1  UNL1        0.0437
     21 C         144.0538  143.0514  164.1555 C.ar    1  UNL1       -0.0208
     22 C         142.8131  142.7852  164.9553 C.ar    1  UNL1       -0.0042
     23 C         141.5931  143.6338  164.7518 C.ar    1  UNL1       -0.0003
     24 C         141.6138  144.7485  163.7484 C.ar    1  UNL1       -0.0000
     25 C         142.8545  145.0148  162.9485 C.ar    1  UNL1       -0.0003
     26 C         144.0745  144.1662  163.1520 C.ar    1  UNL1       -0.0042
@<TRIPOS>BOND
     1    17    18    1
     2    18    16    1
     3    16    15    1
     4    15     9    1
     5     9    10   ar
     6    10    11   ar
     7    11    12   ar
     8    12     8    1
     9     8     7    1
    10     7     1    1
    11     1     2    1
    12     2     3    1
    13     3     4    1
    14     4    19    1
    15    19    20    1
    16    20    21    1
    17    21    22   ar
    18    22    23   ar
    19    23    24   ar
    20    24    25   ar
    21    25    26   ar
    22     4     5    1
    23     5     6    1
    24    12    13   ar
    25    13    14   ar
    26    14     9   ar
    27     6     1    1
    28    26    21   ar
@<TRIPOS>MOLECULE
*****
 26 28 0 0 0
SMALL
GASTEIGER

@<TRIPOS>ATOM
      1 N         140.1731  138.1342  162.9145 N.3     1  UNL1       -0.2700
      2 C         141.1807  137.8662  161.8360 C.3     1  UNL1        0.0897
      3 C         142.6200  138.2323  162.0466 C.3     1  UNL1        0.0897
      4 N         143.0517  138.8666  163.3356 N.3     1  UNL1       -0.2700
      5 C         142.0441  139.1346  164.4139 C.3     1  UNL1        0.0897
      6 C         140.6048  138.7685  164.2034 C.3     1  UNL1        0.0897
      7 C         138.7338  137.7681  162.7039 C.3     1  UNL1        0.0769
      8 C         137.8592  138.6293  161.8418 C.3     1  UNL1        0.0437
      9 C         137.8985  143.1000  162.3529 C.ar    1  UNL1        0.1387
     10 C         138.2092  142.4952  161.0159 C.ar    1  UNL1        0.0366
     11 C         138.1961  141.0049  160.8455 C.ar    1  UNL1       -0.0011
     12 C         137.8723  140.1195  162.0121 C.ar    1  UNL1       -0.0206
     13 C         137.5615  140.7243  163.3492 C.ar    1  UNL1       -0.0011
     14 C         137.5746  142.2145  163.5195 C.ar    1  UNL1        0.0366
     15 O         137.9116  144.5902  162.5233 O.3     1  UNL1       -0.4724
     16 C         139.2095  145.3400  162.4684 C.3     1  UNL1        0.2434
     17 F         140.6782  144.8240  164.5486 F       1  UNL1       -0.2302
     18 C         140.4472  144.7418  163.0687 C.3     1  UNL1        0.2403
     19 C         144.4910  139.2328  163.5461 C.3     1  UNL1        0.0769
     20 C         144.8484  140.3957  164.4237 C.3     1  UNL1        0.0437
     21 C         144.5890  141.7967  163.9547 C.ar    1  UNL1       -0.0208
     22 C         144.6479  142.1208  162.4914 C.ar    1  UNL1       -0.0042
     23 C         144.3885  143.5218  162.0225 C.ar    1  UNL1       -0.0003
     24 C         144.0701  144.5987  163.0169 C.ar    1  UNL1       -0.0000
     25 C         144.0112  144.2746  164.4803 C.ar    1  UNL1       -0.0003
     26 C         144.2706  142.8736  164.9493 C.ar    1  UNL1       -0.0042
@<TRIPOS>BOND
     1    17    18    1
     2    18    16    1
     3    16    15    1
     4    15     9    1
     5     9    10   ar
     6    10    11   ar
     7    11    12   ar
     8    12     8    1
     9     8     7    1
    10     7     1    1
    11     1     2    1
    12     2     3    1
    13     3     4    1
    14     4    19    1
    15    19    20    1
    16    20    21    1
    17    21    22   ar
    18    22    23   ar
    19    23    24   ar
    20    24    25   ar
    21    25    26   ar
    22     4     5    1
    23     5     6    1
    24    12    13   ar
    25    13    14   ar
    26    14     9   ar
    27     6     1    1
    28    26    21   ar
@<TRIPOS>MOLECULE
*****
 26 28 0 0 0
SMALL
GASTEIGER

@<TRIPOS>ATOM
      1 N         144.5270  142.7073  162.4930 N.3     1  UNL1       -0.2700
      2 C         143.9872  143.8367  163.3196 C.3     1  UNL1        0.0897
      3 C         142.8624  144.6790  162.7950 C.3     1  UNL1        0.0897
      4 N         142.2774  144.3921  161.4439 N.3     1  UNL1       -0.2700
      5 C         142.8172  143.2627  160.6174 C.3     1  UNL1        0.0897
      6 C         143.9421  142.4203  161.1419 C.3     1  UNL1        0.0897
      7 C         145.6519  141.8649  163.0175 C.3     1  UNL1        0.0769
      8 C         145.3704  140.7614  163.9937 C.3     1  UNL1        0.0437
      9 C         141.9339  137.9458  163.2773 C.ar    1  UNL1        0.1387
     10 C         142.0438  138.6786  164.5815 C.ar    1  UNL1        0.0366
     11 C         143.1893  139.6171  164.8203 C.ar    1  UNL1       -0.0011
     12 C         144.2249  139.8229  163.7549 C.ar    1  UNL1       -0.0206
     13 C         144.1150  139.0901  162.4507 C.ar    1  UNL1       -0.0011
     14 C         142.9695  138.1516  162.2119 C.ar    1  UNL1        0.0366
     15 O         140.7884  137.0073  163.0385 O.3     1  UNL1       -0.4724
     16 C         139.3776  137.5103  163.1181 C.3     1  UNL1        0.2434
     17 F         137.5242  139.0708  162.1799 F       1  UNL1       -0.2302
     18 C         138.8000  138.3061  161.9853 C.3     1  UNL1        0.2403
     19 C         141.1526  145.2344  160.9193 C.3     1  UNL1        0.0769
     20 C         140.0822  145.7209  161.8510 C.3     1  UNL1        0.0437
     21 C         139.2994  144.7393  162.6717 C.ar    1  UNL1       -0.0208
     22 C         138.5597  143.6209  161.9994 C.ar    1  UNL1       -0.0042
     23 C         137.7769  142.6393  162.8201 C.ar    1  UNL1       -0.0003
     24 C         137.7339  142.7760  164.3132 C.ar    1  UNL1       -0.0000
     25 C         138.4736  143.8944  164.9857 C.ar    1  UNL1       -0.0003
     26 C         139.2564  144.8760  164.1649 C.ar    1  UNL1       -0.0042
@<TRIPOS>BOND
     1    17    18    1
     2    18    16    1
     3    16    15    1
     4    15     9    1
     5     9    10   ar
     6    10    11   ar
     7    11    12   ar
     8    12     8    1
     9     8     7    1
    10     7     1    1
    11     1     2    1
    12     2     3    1
    13     3     4    1
    14     4    19    1
    15    19    20    1
    16    20    21    1
    17    21    22   ar
    18    22    23   ar
    19    23    24   ar
    20    24    25   ar
    21    25    26   ar
    22     4     5    1
    23     5     6    1
    24    12    13   ar
    25    13    14   ar
    26    14     9   ar
    27     6     1    1
    28    26    21   ar
@<TRIPOS>MOLECULE
*****
 26 28 0 0 0
SMALL
GASTEIGER

@<TRIPOS>ATOM
      1 N         144.2995  139.9018  164.1037 N.3     1  UNL1       -0.2700
      2 C         143.8734  139.1270  162.8920 C.3     1  UNL1        0.0897
      3 C         142.7046  138.1903  162.9735 C.3     1  UNL1        0.0897
      4 N         141.9619  138.0285  164.2667 N.3     1  UNL1       -0.2700
      5 C         142.3880  138.8033  165.4783 C.3     1  UNL1        0.0897
      6 C         143.5568  139.7400  165.3968 C.3     1  UNL1        0.0897
      7 C         145.4683  140.8384  164.0222 C.3     1  UNL1        0.0769
      8 C         145.4329  142.0013  163.0755 C.3     1  UNL1        0.0437
      9 C         141.7956  144.6447  162.8937 C.ar    1  UNL1        0.1387
     10 C         141.9085  143.4604  161.9801 C.ar    1  UNL1        0.0366
     11 C         143.1209  142.5793  162.0407 C.ar    1  UNL1       -0.0011
     12 C         144.2205  142.8825  163.0149 C.ar    1  UNL1       -0.0206
     13 C         144.1076  144.0667  163.9285 C.ar    1  UNL1       -0.0011
     14 C         142.8951  144.9479  163.8679 C.ar    1  UNL1        0.0366
     15 O         140.5832  145.5258  162.8331 O.3     1  UNL1       -0.4724
     16 C         139.2457  144.9909  163.2511 C.3     1  UNL1        0.2434
     17 F         137.5350  144.5036  165.1449 F       1  UNL1       -0.2302
     18 C         138.9412  144.7856  164.7055 C.3     1  UNL1        0.2403
     19 C         140.7931  137.0919  164.3482 C.3     1  UNL1        0.0769
     20 C         139.4762  137.5800  164.8753 C.3     1  UNL1        0.0437
     21 C         138.8416  138.8061  164.2888 C.ar    1  UNL1       -0.0208
     22 C         138.4549  138.8303  162.8397 C.ar    1  UNL1       -0.0042
     23 C         137.8203  140.0564  162.2532 C.ar    1  UNL1       -0.0003
     24 C         137.5724  141.2583  163.1158 C.ar    1  UNL1       -0.0000
     25 C         137.9591  141.2341  164.5649 C.ar    1  UNL1       -0.0003
     26 C         138.5937  140.0080  165.1514 C.ar    1  UNL1       -0.0042
@<TRIPOS>BOND
     1    17    18    1
     2    18    16    1
     3    16    15    1
     4    15     9    1
     5     9    10   ar
     6    10    11   ar
     7    11    12   ar
     8    12     8    1
     9     8     7    1
    10     7     1    1
    11     1     2    1
    12     2     3    1
    13     3     4    1
    14     4    19    1
    15    19    20    1
    16    20    21    1
    17    21    22   ar
    18    22    23   ar
    19    23    24   ar
    20    24    25   ar
    21    25    26   ar
    22     4     5    1
    23     5     6    1
    24    12    13   ar
    25    13    14   ar
    26    14     9   ar
    27     6     1    1
    28    26    21   ar
@<TRIPOS>MOLECULE
*****
 26 28 0 0 0
SMALL
GASTEIGER

@<TRIPOS>ATOM
      1 N         141.4723  144.6516  161.8524 N.3     1  UNL1       -0.2700
      2 C         141.5883  143.3799  161.0652 C.3     1  UNL1        0.0897
      3 C         142.8259  142.5397  161.1759 C.3     1  UNL1        0.0897
      4 N         143.9475  142.9710  162.0738 N.3     1  UNL1       -0.2700
      5 C         143.8314  144.2425  162.8609 C.3     1  UNL1        0.0897
      6 C         142.5938  145.0828  162.7502 C.3     1  UNL1        0.0897
      7 C         140.2347  145.4919  161.7417 C.3     1  UNL1        0.0769
      8 C         139.0867  145.2634  162.6797 C.3     1  UNL1        0.0437
      9 C         139.1205  141.7228  165.4570 C.ar    1  UNL1        0.1387
     10 C         138.4331  141.6265  164.1273 C.ar    1  UNL1        0.0366
     11 C         138.4218  142.8067  163.2015 C.ar    1  UNL1       -0.0011
     12 C         139.0980  144.0832  163.6054 C.ar    1  UNL1       -0.0206
     13 C         139.7854  144.1795  164.9351 C.ar    1  UNL1       -0.0011
     14 C         139.7967  142.9994  165.8609 C.ar    1  UNL1        0.0366
     15 O         139.1318  140.5426  166.3827 O.3     1  UNL1       -0.4724
     16 C         138.4297  139.2761  165.9918 C.3     1  UNL1        0.2434
     17 F         137.3809  137.0393  166.7964 F       1  UNL1       -0.2302
     18 C         137.6635  138.4957  167.0185 C.3     1  UNL1        0.2403
     19 C         145.1851  142.1307  162.1844 C.3     1  UNL1        0.0769
     20 C         145.6563  141.6630  163.5296 C.3     1  UNL1        0.0437
     21 C         144.7196  140.9207  164.4360 C.ar    1  UNL1       -0.0208
     22 C         143.7924  141.6783  165.3394 C.ar    1  UNL1       -0.0042
     23 C         142.8557  140.9360  166.2458 C.ar    1  UNL1       -0.0003
     24 C         142.8462  139.4360  166.2487 C.ar    1  UNL1       -0.0000
     25 C         143.7735  138.6783  165.3453 C.ar    1  UNL1       -0.0003
     26 C         144.7102  139.4207  164.4389 C.ar    1  UNL1       -0.0042
@<TRIPOS>BOND
     1    17    18    1
     2    18    16    1
     3    16    15    1
     4    15     9    1
     5     9    10   ar
     6    10    11   ar
     7    11    12   ar
     8    12     8    1
     9     8     7    1
    10     7     1    1
    11     1     2    1
    12     2     3    1
    13     3     4    1
    14     4    19    1
    15    19    20    1
    16    20    21    1
    17    21    22   ar
    18    22    23   ar
    19    23    24   ar
    20    24    25   ar
    21    25    26   ar
    22     4     5    1
    23     5     6    1
    24    12    13   ar
    25    13    14   ar
    26    14     9   ar
    27     6     1    1
    28    26    21   ar
@<TRIPOS>MOLECULE
*****
 26 28 0 0 0
SMALL
GASTEIGER

@<TRIPOS>ATOM
      1 N         140.7254  144.4900  162.4583 N.3     1  UNL1       -0.2700
      2 C         141.8004  145.1207  163.2931 C.3     1  UNL1        0.0897
      3 C         143.1828  144.5384  163.3005 C.3     1  UNL1        0.0897
      4 N         143.4901  143.3254  162.4732 N.3     1  UNL1       -0.2700
      5 C         142.4152  142.6948  161.6385 C.3     1  UNL1        0.0897
      6 C         141.0328  143.2771  161.6311 C.3     1  UNL1        0.0897
      7 C         139.3431  145.0722  162.4509 C.3     1  UNL1        0.0769
      8 C         138.3095  144.5629  163.4112 C.3     1  UNL1        0.0437
      9 C         138.3350  140.2398  164.6602 C.ar    1  UNL1        0.1387
     10 C         139.0770  141.2594  165.4723 C.ar    1  UNL1        0.0366
     11 C         139.0685  142.7005  165.0560 C.ar    1  UNL1       -0.0011
     12 C         138.3180  143.1219  163.8275 C.ar    1  UNL1       -0.0206
     13 C         137.5760  142.1022  163.0154 C.ar    1  UNL1       -0.0011
     14 C         137.5845  140.6611  163.4317 C.ar    1  UNL1        0.0366
     15 O         138.3435  138.7987  165.0765 O.3     1  UNL1       -0.4724
     16 C         139.5762  137.9677  164.8770 C.3     1  UNL1        0.2434
     17 F         141.3784  136.9872  163.2830 F       1  UNL1       -0.2302
     18 C         140.0445  137.6415  163.4898 C.3     1  UNL1        0.2403
     19 C         144.8725  142.7432  162.4806 C.3     1  UNL1        0.0769
     20 C         145.4000  142.0791  163.7180 C.3     1  UNL1        0.0437
     21 C         144.5067  141.1891  164.5303 C.ar    1  UNL1       -0.0208
     22 C         144.4781  139.7129  164.2664 C.ar    1  UNL1       -0.0042
     23 C         143.5848  138.8229  165.0787 C.ar    1  UNL1       -0.0003
     24 C         142.7201  139.4092  166.1551 C.ar    1  UNL1       -0.0000
     25 C         142.7487  140.8855  166.4191 C.ar    1  UNL1       -0.0003
     26 C         143.6420  141.7755  165.6067 C.ar    1  UNL1       -0.0042
@<TRIPOS>BOND
     1    17    18    1
     2    18    16    1
     3    16    15    1
     4    15     9    1
     5     9    10   ar
     6    10    11   ar
     7    11    12   ar
     8    12     8    1
     9     8     7    1
    10     7     1    1
    11     1     2    1
    12     2     3    1
    13     3     4    1
    14     4    19    1
    15    19    20    1
    16    20    21    1
    17    21    22   ar
    18    22    23   ar
    19    23    24   ar
    20    24    25   ar
    21    25    26   ar
    22     4     5    1
    23     5     6    1
    24    12    13   ar
    25    13    14   ar
    26    14     9   ar
    27     6     1    1
    28    26    21   ar
@<TRIPOS>MOLECULE
*****
 26 28 0 0 0
SMALL
GASTEIGER

@<TRIPOS>ATOM
      1 N         141.3689  137.7783  164.4529 N.3     1  UNL1       -0.2700
      2 C         142.0180  138.4355  165.6348 C.3     1  UNL1        0.0897
      3 C         143.3065  139.1839  165.4629 C.3     1  UNL1        0.0897
      4 N         143.9461  139.2750  164.1091 N.3     1  UNL1       -0.2700
      5 C         143.2971  138.6178  162.9273 C.3     1  UNL1        0.0897
      6 C         142.0085  137.8694  163.0992 C.3     1  UNL1        0.0897
      7 C         140.0804  137.0299  164.6248 C.3     1  UNL1        0.0769
      8 C         138.8341  137.7638  165.0225 C.3     1  UNL1        0.0437
      9 C         138.0089  141.8628  163.3589 C.ar    1  UNL1        0.1387
     10 C         138.0338  140.6736  162.4451 C.ar    1  UNL1        0.0366
     11 C         138.3089  139.3072  162.9996 C.ar    1  UNL1       -0.0011
     12 C         138.5591  139.1301  164.4680 C.ar    1  UNL1       -0.0206
     13 C         138.5342  140.3194  165.3817 C.ar    1  UNL1       -0.0011
     14 C         138.2591  141.6857  164.8272 C.ar    1  UNL1        0.0366
     15 O         137.7339  143.2291  162.8044 O.3     1  UNL1       -0.4724
     16 C         138.8592  144.0580  162.2598 C.3     1  UNL1        0.2434
     17 F         141.0747  143.0776  163.1981 F       1  UNL1       -0.2302
     18 C         140.1200  144.2258  163.0548 C.3     1  UNL1        0.2403
     19 C         145.2347  140.0233  163.9372 C.3     1  UNL1        0.0769
     20 C         145.3100  141.1776  162.9822 C.3     1  UNL1        0.0437
     21 C         144.7877  142.5234  163.3896 C.ar    1  UNL1       -0.0208
     22 C         144.3699  143.5139  162.3436 C.ar    1  UNL1       -0.0042
     23 C         143.8476  144.8598  162.7510 C.ar    1  UNL1       -0.0003
     24 C         143.7432  145.2151  164.2045 C.ar    1  UNL1       -0.0000
     25 C         144.1610  144.2246  165.2507 C.ar    1  UNL1       -0.0003
     26 C         144.6832  142.8787  164.8432 C.ar    1  UNL1       -0.0042
@<TRIPOS>BOND
     1    17    18    1
     2    18    16    1
     3    16    15    1
     4    15     9    1
     5     9    10   ar
     6    10    11   ar
     7    11    12   ar
     8    12     8    1
     9     8     7    1
    10     7     1    1
    11     1     2    1
    12     2     3    1
    13     3     4    1
    14     4    19    1
    15    19    20    1
    16    20    21    1
    17    21    22   ar
    18    22    23   ar
    19    23    24   ar
    20    24    25   ar
    21    25    26   ar
    22     4     5    1
    23     5     6    1
    24    12    13   ar
    25    13    14   ar
    26    14     9   ar
    27     6     1    1
    28    26    21   ar
