@<TRIPOS>MOLECULE
*****
 48 53 0 0 0
SMALL
GASTEIGER

@<TRIPOS>ATOM
      1 C         143.9606  140.3128  158.4060 C.3     1  UNL1        0.0898
      2 N         142.5943  141.1379  162.6135 N.pl3   1  UNL1       -0.2932
      3 C         141.9514  141.8530  161.4623 C.3     1  UNL1        0.0922
      4 C         142.4067  141.5780  160.0599 C.3     1  UNL1        0.0232
      5 C         143.5051  140.5879  159.8086 C.3     1  UNL1        0.0230
      6 C         144.1481  139.8728  160.9597 C.3     1  UNL1        0.0232
      7 C         143.6927  140.1477  162.3622 C.3     1  UNL1        0.0922
      8 C         141.2279  141.9630  166.8209 C.ar    1  UNL1        0.0223
      9 C         142.5933  142.3973  166.3770 C.ar    1  UNL1        0.0045
     10 C         143.0488  142.1223  164.9746 C.ar    1  UNL1        0.0343
     11 C         142.1389  141.4130  164.0160 C.ar    1  UNL1        0.1317
     12 N         140.7735  140.9786  164.4599 N.ar    1  UNL1       -0.2292
     13 C         140.3180  141.2537  165.8624 C.ar    1  UNL1        0.1004
     14 C         140.5629  141.1021  169.1803 C.ar    1  UNL1        0.1385
     15 C         140.1075  141.3773  170.5827 C.ar    1  UNL1        0.0392
     16 C         139.8616  142.7883  171.0282 C.ar    1  UNL1        0.0327
     17 C         140.0712  143.9243  170.0713 C.ar    1  UNL1        0.1403
     18 F         139.8253  145.3353  170.5169 F       1  UNL1       -0.2042
     19 C         140.5266  143.6491  168.6689 C.ar    1  UNL1        0.0327
     20 C         140.7725  142.2381  168.2234 C.ar    1  UNL1        0.0377
     21 O         140.8088  139.6911  168.7347 O.3     1  UNL1       -0.4792
     22 C         142.7761  138.6269  170.0565 C.3     1  UNL1        0.0472
     23 C         142.1981  139.1262  168.7656 C.3     1  UNL1        0.1661
     24 C         143.0092  139.0607  167.5055 C.3     1  UNL1        0.0472
     25 N         143.8114  138.9379  157.8251 N.am    1  UNL1       -0.3009
     26 C         142.4509  138.4201  157.4636 C.2     1  UNL1        0.2458
     27 O         141.2395  139.2771  157.6831 O.2     1  UNL1       -0.2701
     28 H         144.6065  138.3755  157.6810 H       1  UNL1        0.1497
     29 C         142.3017  137.0452  156.8827 C.ar    1  UNL1        0.0534
     30 C         143.2050  135.9371  157.3367 C.ar    1  UNL1        0.0047
     31 C         143.0559  134.5622  156.7558 C.ar    1  UNL1        0.0048
     32 C         142.0034  134.2954  155.7208 C.ar    1  UNL1        0.0536
     33 C         141.1001  135.4035  155.2668 C.ar    1  UNL1        0.0048
     34 C         141.2492  136.7785  155.8477 C.ar    1  UNL1        0.0047
     35 C         141.8543  132.9206  155.1399 C.ar    1  UNL1        0.2296
     36 N         140.5750  132.2986  154.6638 N.ar    1  UNL1       -0.2082
     37 C         140.8884  130.9199  154.1627 C.ar    1  UNL1        0.1192
     38 C         140.0227  129.8443  153.5764 C.ar    1  UNL1        0.0326
     39 C         140.6301  128.5386  153.1565 C.ar    1  UNL1        0.0698
     40 C         142.1029  128.3085  153.3229 C.ar    1  UNL1        0.0091
     41 C         142.9685  129.3841  153.9092 C.ar    1  UNL1        0.0143
     42 C         142.3612  130.6898  154.3291 C.ar    1  UNL1        0.1607
     43 O         142.9582  131.9263  154.9330 O.2     1  UNL1       -0.4349
     44 C         144.4414  129.1540  154.0755 C.3     1  UNL1        0.0254
     45 C         145.2773  128.7608  152.8937 C.3     1  UNL1        0.0048
     46 C         145.0784  129.3171  155.4238 C.3     1  UNL1        0.0048
     47 C         139.7645  127.4629  152.5702 C.1     1  UNL1        0.1005
     48 N         138.8988  126.3873  151.9839 N.1     1  UNL1       -0.1908
@<TRIPOS>BOND
     1    22    23    1
     2    23    24    1
     3    23    21    1
     4    21    14    1
     5    14    15   ar
     6    15    16   ar
     7    16    17   ar
     8    17    18    1
     9    17    19   ar
    10    19    20   ar
    11    20     8    1
    12     8     9   ar
    13     9    10   ar
    14    10    11   ar
    15    11     2    1
    16     2     3    1
    17     3     4    1
    18     4     5    1
    19     5     1    1
    20     1    25    1
    21    25    26   am
    22    26    27    2
    23    26    29    1
    24    29    30   ar
    25    30    31   ar
    26    31    32   ar
    27    32    35    1
    28    35    36   ar
    29    36    37   ar
    30    37    38   ar
    31    38    39   ar
    32    39    47    1
    33    47    48    3
    34    39    40   ar
    35    40    41   ar
    36    41    44    1
    37    44    45    1
    38    44    46    1
    39    41    42   ar
    40    42    43   ar
    41    32    33   ar
    42    33    34   ar
    43     5     6    1
    44     6     7    1
    45    11    12   ar
    46    12    13   ar
    47    20    14   ar
    48    13     8   ar
    49     7     2    1
    50    34    29   ar
    51    43    35   ar
    52    42    37   ar
    53    25    28    1
@<TRIPOS>MOLECULE
*****
 48 53 0 0 0
SMALL
GASTEIGER

@<TRIPOS>ATOM
      1 C         141.3619  139.1109  155.8965 C.3     1  UNL1        0.0898
      2 N         142.3260  134.8701  154.7404 N.pl3   1  UNL1       -0.2932
      3 C         140.9280  135.2394  155.1394 C.3     1  UNL1        0.0922
      4 C         140.6065  136.6529  155.5247 C.3     1  UNL1        0.0232
      5 C         141.6832  137.6973  155.5111 C.3     1  UNL1        0.0230
      6 C         143.0812  137.3280  155.1122 C.3     1  UNL1        0.0232
      7 C         143.4027  135.9145  154.7268 C.3     1  UNL1        0.0922
      8 C         143.2900  130.6294  153.5842 C.ar    1  UNL1        0.0223
      9 C         143.5791  131.1118  154.9748 C.ar    1  UNL1        0.0045
     10 C         143.2578  132.5254  155.3602 C.ar    1  UNL1        0.0343
     11 C         142.6473  133.4566  154.3551 C.ar    1  UNL1        0.1317
     12 N         142.3582  132.9741  152.9645 N.ar    1  UNL1       -0.2292
     13 C         142.6795  131.5605  152.5790 C.ar    1  UNL1        0.1004
     14 C         142.5120  128.2828  152.7851 C.ar    1  UNL1        0.1385
     15 C         142.8334  126.8693  152.3998 C.ar    1  UNL1        0.0392
     16 C         144.2541  126.3886  152.4282 C.ar    1  UNL1        0.0327
     17 C         145.3533  127.3216  152.8420 C.ar    1  UNL1        0.1403
     18 F         146.7740  126.8410  152.8704 F       1  UNL1       -0.2042
     19 C         145.0319  128.7351  153.2273 C.ar    1  UNL1        0.0327
     20 C         143.6113  129.2158  153.1989 C.ar    1  UNL1        0.0377
     21 O         141.0914  128.7635  152.7567 O.3     1  UNL1       -0.4792
     22 C         139.6368  127.3107  154.3453 C.3     1  UNL1        0.0472
     23 C         140.2326  128.6380  153.9802 C.3     1  UNL1        0.1661
     24 C         139.9697  129.8397  154.8384 C.3     1  UNL1        0.0472
     25 N         141.1848  139.4726  157.3414 N.am    1  UNL1       -0.3009
     26 C         142.3732  139.5110  158.2559 C.2     1  UNL1        0.2458
     27 O         143.7385  139.1877  157.7255 O.2     1  UNL1       -0.2701
     28 H         140.2887  139.6848  157.6896 H       1  UNL1        0.1497
     29 C         142.1962  139.8727  159.7008 C.ar    1  UNL1        0.0534
     30 C         141.9837  141.3043  160.0950 C.ar    1  UNL1        0.0047
     31 C         141.8067  141.6661  161.5400 C.ar    1  UNL1        0.0048
     32 C         141.8422  140.5962  162.5907 C.ar    1  UNL1        0.0536
     33 C         142.0546  139.1646  162.1965 C.ar    1  UNL1        0.0048
     34 C         142.2316  138.8028  160.7516 C.ar    1  UNL1        0.0047
     35 C         141.6651  140.9579  164.0357 C.ar    1  UNL1        0.2296
     36 N         141.0048  142.1986  164.5595 N.ar    1  UNL1       -0.2082
     37 C         141.0490  142.1498  166.0580 C.ar    1  UNL1        0.1192
     38 C         140.5518  143.0985  167.1082 C.ar    1  UNL1        0.0326
     39 C         140.7424  142.7762  168.5607 C.ar    1  UNL1        0.0698
     40 C         141.4300  141.5054  168.9631 C.ar    1  UNL1        0.0091
     41 C         141.9271  140.5567  167.9129 C.ar    1  UNL1        0.0143
     42 C         141.7366  140.8789  166.4604 C.ar    1  UNL1        0.1607
     43 O         142.1174  140.1422  165.2105 O.2     1  UNL1       -0.4349
     44 C         142.6148  139.2858  168.3153 C.3     1  UNL1        0.0254
     45 C         142.5779  138.8332  169.7449 C.3     1  UNL1        0.0048
     46 C         143.3394  138.4674  167.2880 C.3     1  UNL1        0.0048
     47 C         140.2453  143.7250  169.6110 C.1     1  UNL1        0.1005
     48 N         139.7481  144.6736  170.6611 N.1     1  UNL1       -0.1908
@<TRIPOS>BOND
     1    22    23    1
     2    23    24    1
     3    23    21    1
     4    21    14    1
     5    14    15   ar
     6    15    16   ar
     7    16    17   ar
     8    17    18    1
     9    17    19   ar
    10    19    20   ar
    11    20     8    1
    12     8     9   ar
    13     9    10   ar
    14    10    11   ar
    15    11     2    1
    16     2     3    1
    17     3     4    1
    18     4     5    1
    19     5     1    1
    20     1    25    1
    21    25    26   am
    22    26    27    2
    23    26    29    1
    24    29    30   ar
    25    30    31   ar
    26    31    32   ar
    27    32    35    1
    28    35    36   ar
    29    36    37   ar
    30    37    38   ar
    31    38    39   ar
    32    39    47    1
    33    47    48    3
    34    39    40   ar
    35    40    41   ar
    36    41    44    1
    37    44    45    1
    38    44    46    1
    39    41    42   ar
    40    42    43   ar
    41    32    33   ar
    42    33    34   ar
    43     5     6    1
    44     6     7    1
    45    11    12   ar
    46    12    13   ar
    47    20    14   ar
    48    13     8   ar
    49     7     2    1
    50    34    29   ar
    51    43    35   ar
    52    42    37   ar
    53    25    28    1
@<TRIPOS>MOLECULE
*****
 48 53 0 0 0
SMALL
GASTEIGER

@<TRIPOS>ATOM
      1 C         139.2744  140.2444  155.8380 C.3     1  UNL1        0.0898
      2 N         135.0101  141.1986  154.7627 N.pl3   1  UNL1       -0.2932
      3 C         135.5456  139.8139  154.5490 C.3     1  UNL1        0.0922
      4 C         136.9670  139.4958  154.9074 C.3     1  UNL1        0.0232
      5 C         137.8529  140.5625  155.4796 C.3     1  UNL1        0.0230
      6 C         137.3174  141.9472  155.6933 C.3     1  UNL1        0.0232
      7 C         135.8960  142.2654  155.3349 C.3     1  UNL1        0.0922
      8 C         130.7459  142.1528  153.6873 C.ar    1  UNL1        0.0223
      9 C         131.0929  141.7458  155.0887 C.ar    1  UNL1        0.0045
     10 C         132.5143  141.4277  155.4472 C.ar    1  UNL1        0.0343
     11 C         133.5888  141.5167  154.4043 C.ar    1  UNL1        0.1317
     12 N         133.2418  141.9237  153.0029 N.ar    1  UNL1       -0.2292
     13 C         131.8203  142.2418  152.6444 C.ar    1  UNL1        0.1004
     14 C         128.3237  141.3639  153.1771 C.ar    1  UNL1        0.1385
     15 C         126.9023  141.6820  152.8187 C.ar    1  UNL1        0.0392
     16 C         126.4818  143.1070  152.6120 C.ar    1  UNL1        0.0327
     17 C         127.4827  144.2139  152.7638 C.ar    1  UNL1        0.1403
     18 F         127.0622  145.6388  152.5571 F       1  UNL1       -0.2042
     19 C         128.9040  143.8957  153.1222 C.ar    1  UNL1        0.0327
     20 C         129.3246  142.4708  153.3289 C.ar    1  UNL1        0.0377
     21 O         128.7442  139.9390  153.3838 O.3     1  UNL1       -0.4792
     22 C         127.8547  140.0121  155.8237 C.3     1  UNL1        0.0472
     23 C         128.4065  139.2357  154.6650 C.3     1  UNL1        0.1661
     24 C         128.6208  137.7562  154.7874 C.3     1  UNL1        0.0472
     25 N         139.7551  140.4417  157.2451 N.am    1  UNL1       -0.3009
     26 C         138.7966  140.3071  158.3909 C.2     1  UNL1        0.2458
     27 O         137.3573  139.9752  158.1297 O.2     1  UNL1       -0.2701
     28 H         140.6998  140.6595  157.4166 H       1  UNL1        0.1497
     29 C         139.2774  140.5043  159.7980 C.ar    1  UNL1        0.0534
     30 C         139.4423  141.8905  160.3468 C.ar    1  UNL1        0.0047
     31 C         139.9231  142.0879  161.7540 C.ar    1  UNL1        0.0048
     32 C         140.2389  140.8990  162.6123 C.ar    1  UNL1        0.0536
     33 C         140.0740  139.5128  162.0635 C.ar    1  UNL1        0.0048
     34 C         139.5932  139.3154  160.6563 C.ar    1  UNL1        0.0047
     35 C         140.7197  141.0963  164.0194 C.ar    1  UNL1        0.2296
     36 N         142.0026  141.7574  164.4282 N.ar    1  UNL1       -0.2082
     37 C         142.0777  141.7368  165.9262 C.ar    1  UNL1        0.1192
     38 C         143.1123  142.2446  166.8863 C.ar    1  UNL1        0.0326
     39 C         142.9104  142.0784  168.3634 C.ar    1  UNL1        0.0698
     40 C         141.6740  141.4046  168.8803 C.ar    1  UNL1        0.0091
     41 C         140.6395  140.8968  167.9202 C.ar    1  UNL1        0.0143
     42 C         140.8413  141.0629  166.4431 C.ar    1  UNL1        0.1607
     43 O         140.0020  140.6670  165.2646 O.2     1  UNL1       -0.4349
     44 C         139.4031  140.2229  168.4371 C.3     1  UNL1        0.0254
     45 C         139.0047  140.3866  169.8739 C.3     1  UNL1        0.0048
     46 C         138.5651  139.3853  167.5172 C.3     1  UNL1        0.0048
     47 C         143.9450  142.5863  169.3236 C.1     1  UNL1        0.1005
     48 N         144.9795  143.0940  170.2837 N.1     1  UNL1       -0.1908
@<TRIPOS>BOND
     1    22    23    1
     2    23    24    1
     3    23    21    1
     4    21    14    1
     5    14    15   ar
     6    15    16   ar
     7    16    17   ar
     8    17    18    1
     9    17    19   ar
    10    19    20   ar
    11    20     8    1
    12     8     9   ar
    13     9    10   ar
    14    10    11   ar
    15    11     2    1
    16     2     3    1
    17     3     4    1
    18     4     5    1
    19     5     1    1
    20     1    25    1
    21    25    26   am
    22    26    27    2
    23    26    29    1
    24    29    30   ar
    25    30    31   ar
    26    31    32   ar
    27    32    35    1
    28    35    36   ar
    29    36    37   ar
    30    37    38   ar
    31    38    39   ar
    32    39    47    1
    33    47    48    3
    34    39    40   ar
    35    40    41   ar
    36    41    44    1
    37    44    45    1
    38    44    46    1
    39    41    42   ar
    40    42    43   ar
    41    32    33   ar
    42    33    34   ar
    43     5     6    1
    44     6     7    1
    45    11    12   ar
    46    12    13   ar
    47    20    14   ar
    48    13     8   ar
    49     7     2    1
    50    34    29   ar
    51    43    35   ar
    52    42    37   ar
    53    25    28    1
@<TRIPOS>MOLECULE
*****
 48 53 0 0 0
SMALL
GASTEIGER

@<TRIPOS>ATOM
      1 C         139.0383  139.6959  155.5972 C.3     1  UNL1        0.0898
      2 N         134.8519  140.9950  154.5792 N.pl3   1  UNL1       -0.2932
      3 C         135.1994  139.5361  154.6038 C.3     1  UNL1        0.0922
      4 C         136.5948  139.1030  154.9431 C.3     1  UNL1        0.0232
      5 C         137.6428  140.1290  155.2579 C.3     1  UNL1        0.0230
      6 C         137.2953  141.5879  155.2333 C.3     1  UNL1        0.0232
      7 C         135.8999  142.0210  154.8940 C.3     1  UNL1        0.0922
      8 C         130.6655  142.2941  153.5611 C.ar    1  UNL1        0.0223
      9 C         130.9951  141.8512  154.9558 C.ar    1  UNL1        0.0045
     10 C         132.3905  141.4182  155.2952 C.ar    1  UNL1        0.0343
     11 C         133.4564  141.4280  154.2399 C.ar    1  UNL1        0.1317
     12 N         133.1268  141.8709  152.8452 N.ar    1  UNL1       -0.2292
     13 C         131.7313  142.3039  152.5057 C.ar    1  UNL1        0.1004
     14 C         128.1894  141.7023  153.0426 C.ar    1  UNL1        0.1385
     15 C         126.7940  142.1354  152.7032 C.ar    1  UNL1        0.0392
     16 C         126.4791  143.5932  152.5431 C.ar    1  UNL1        0.0327
     17 C         127.5597  144.6180  152.7224 C.ar    1  UNL1        0.1403
     18 F         127.2448  146.0758  152.5623 F       1  UNL1       -0.2042
     19 C         128.9551  144.1849  153.0617 C.ar    1  UNL1        0.0327
     20 C         129.2700  142.7271  153.2218 C.ar    1  UNL1        0.0377
     21 O         128.5043  140.2445  153.2027 O.3     1  UNL1       -0.4792
     22 C         127.8886  138.0112  154.3789 C.3     1  UNL1        0.0472
     23 C         128.0305  139.5040  154.4181 C.3     1  UNL1        0.1661
     24 C         127.6986  140.2562  155.6727 C.3     1  UNL1        0.0472
     25 N         139.4887  139.6702  157.0278 N.am    1  UNL1       -0.3009
     26 C         138.5056  139.9389  158.1284 C.2     1  UNL1        0.2458
     27 O         137.0723  140.2334  157.7984 O.2     1  UNL1       -0.2701
     28 H         140.4294  139.4769  157.2443 H       1  UNL1        0.1497
     29 C         138.9559  139.9132  159.5589 C.ar    1  UNL1        0.0534
     30 C         139.2314  138.6029  160.2351 C.ar    1  UNL1        0.0047
     31 C         139.6817  138.5771  161.6657 C.ar    1  UNL1        0.0048
     32 C         139.8566  139.8616  162.4201 C.ar    1  UNL1        0.0536
     33 C         139.5811  141.1720  161.7440 C.ar    1  UNL1        0.0048
     34 C         139.1308  141.1978  160.3134 C.ar    1  UNL1        0.0047
     35 C         140.3069  139.8359  163.8507 C.ar    1  UNL1        0.2296
     36 N         139.5436  140.3727  165.0251 N.ar    1  UNL1       -0.2082
     37 C         140.3646  140.1374  166.2582 C.ar    1  UNL1        0.1192
     38 C         140.1192  140.4562  167.7033 C.ar    1  UNL1        0.0326
     39 C         141.1446  140.0928  168.7360 C.ar    1  UNL1        0.0698
     40 C         142.4152  139.4106  168.3238 C.ar    1  UNL1        0.0091
     41 C         142.6606  139.0918  166.8787 C.ar    1  UNL1        0.0143
     42 C         141.6353  139.4552  165.8460 C.ar    1  UNL1        0.1607
     43 O         141.5996  139.2688  164.3580 O.2     1  UNL1       -0.4349
     44 C         143.9313  138.4096  166.4665 C.3     1  UNL1        0.0254
     45 C         144.4578  137.2565  167.2685 C.3     1  UNL1        0.0048
     46 C         144.6755  138.8805  165.2522 C.3     1  UNL1        0.0048
     47 C         140.8993  140.4116  170.1812 C.1     1  UNL1        0.1005
     48 N         140.6539  140.7304  171.6262 N.1     1  UNL1       -0.1908
@<TRIPOS>BOND
     1    22    23    1
     2    23    24    1
     3    23    21    1
     4    21    14    1
     5    14    15   ar
     6    15    16   ar
     7    16    17   ar
     8    17    18    1
     9    17    19   ar
    10    19    20   ar
    11    20     8    1
    12     8     9   ar
    13     9    10   ar
    14    10    11   ar
    15    11     2    1
    16     2     3    1
    17     3     4    1
    18     4     5    1
    19     5     1    1
    20     1    25    1
    21    25    26   am
    22    26    27    2
    23    26    29    1
    24    29    30   ar
    25    30    31   ar
    26    31    32   ar
    27    32    35    1
    28    35    36   ar
    29    36    37   ar
    30    37    38   ar
    31    38    39   ar
    32    39    47    1
    33    47    48    3
    34    39    40   ar
    35    40    41   ar
    36    41    44    1
    37    44    45    1
    38    44    46    1
    39    41    42   ar
    40    42    43   ar
    41    32    33   ar
    42    33    34   ar
    43     5     6    1
    44     6     7    1
    45    11    12   ar
    46    12    13   ar
    47    20    14   ar
    48    13     8   ar
    49     7     2    1
    50    34    29   ar
    51    43    35   ar
    52    42    37   ar
    53    25    28    1
@<TRIPOS>MOLECULE
*****
 48 53 0 0 0
SMALL
GASTEIGER

@<TRIPOS>ATOM
      1 C         141.7613  138.1288  151.9671 C.3     1  UNL1        0.0898
      2 N         140.6650  142.2172  153.4947 N.pl3   1  UNL1       -0.2932
      3 C         141.8038  142.0569  152.5318 C.3     1  UNL1        0.0922
      4 C         142.1693  140.6942  152.0225 C.3     1  UNL1        0.0232
      5 C         141.3959  139.4917  152.4763 C.3     1  UNL1        0.0230
      6 C         140.2570  139.6520  153.4393 C.3     1  UNL1        0.0232
      7 C         139.8915  141.0148  153.9485 C.3     1  UNL1        0.0922
      8 C         139.5688  146.3057  155.0223 C.ar    1  UNL1        0.0223
      9 C         138.4942  145.3576  154.5791 C.ar    1  UNL1        0.0045
     10 C         138.8596  143.9948  154.0699 C.ar    1  UNL1        0.0343
     11 C         140.2996  143.5800  154.0039 C.ar    1  UNL1        0.1317
     12 N         141.3742  144.5280  154.4471 N.ar    1  UNL1       -0.2292
     13 C         141.0089  145.8909  154.9563 C.ar    1  UNL1        0.1004
     14 C         139.2525  148.8513  154.6103 C.ar    1  UNL1        0.1385
     15 C         138.8871  150.2140  155.1196 C.ar    1  UNL1        0.0392
     16 C         138.4726  150.3939  156.5499 C.ar    1  UNL1        0.0327
     17 C         138.4235  149.2111  157.4710 C.ar    1  UNL1        0.1403
     18 F         138.0091  149.3910  158.9013 F       1  UNL1       -0.2042
     19 C         138.7890  147.8484  156.9618 C.ar    1  UNL1        0.0327
     20 C         139.2034  147.6684  155.5315 C.ar    1  UNL1        0.0377
     21 O         139.6669  148.6713  153.1800 O.3     1  UNL1       -0.4792
     22 C         141.9554  147.9475  152.1855 C.3     1  UNL1        0.0472
     23 C         141.0650  149.0114  152.7558 C.3     1  UNL1        0.1661
     24 C         141.5726  150.4153  152.9021 C.3     1  UNL1        0.0472
     25 N         142.2744  137.0864  152.9159 N.am    1  UNL1       -0.3009
     26 C         141.6462  135.7247  152.9450 C.2     1  UNL1        0.2458
     27 O         140.5050  135.4052  152.0254 O.2     1  UNL1       -0.2701
     28 H         143.0234  137.2961  153.5194 H       1  UNL1        0.1497
     29 C         142.1593  134.6822  153.8937 C.ar    1  UNL1        0.0534
     30 C         143.2002  135.0422  154.9121 C.ar    1  UNL1        0.0047
     31 C         143.7133  133.9998  155.8609 C.ar    1  UNL1        0.0048
     32 C         143.1856  132.5975  155.7913 C.ar    1  UNL1        0.0536
     33 C         142.1447  132.2375  154.7729 C.ar    1  UNL1        0.0048
     34 C         141.6316  133.2799  153.8241 C.ar    1  UNL1        0.0047
     35 C         143.6986  131.5550  156.7401 C.ar    1  UNL1        0.2296
     36 N         145.0515  131.5418  157.3879 N.ar    1  UNL1       -0.2082
     37 C         145.1378  130.3214  158.2557 C.ar    1  UNL1        0.1192
     38 C         146.2319  129.7892  159.1331 C.ar    1  UNL1        0.0326
     39 C         146.0264  128.5159  159.8990 C.ar    1  UNL1        0.0698
     40 C         144.7271  127.7749  159.7875 C.ar    1  UNL1        0.0091
     41 C         143.6331  128.3071  158.9102 C.ar    1  UNL1        0.0143
     42 C         143.8384  129.5804  158.1443 C.ar    1  UNL1        0.1607
     43 O         142.9489  130.3428  157.2075 O.2     1  UNL1       -0.4349
     44 C         142.3336  127.5661  158.7987 C.3     1  UNL1        0.0254
     45 C         141.8251  127.1421  157.4527 C.3     1  UNL1        0.0048
     46 C         141.5427  127.2491  160.0333 C.3     1  UNL1        0.0048
     47 C         147.1205  127.9836  160.7765 C.1     1  UNL1        0.1005
     48 N         148.2145  127.4514  161.6538 N.1     1  UNL1       -0.1908
@<TRIPOS>BOND
     1    22    23    1
     2    23    24    1
     3    23    21    1
     4    21    14    1
     5    14    15   ar
     6    15    16   ar
     7    16    17   ar
     8    17    18    1
     9    17    19   ar
    10    19    20   ar
    11    20     8    1
    12     8     9   ar
    13     9    10   ar
    14    10    11   ar
    15    11     2    1
    16     2     3    1
    17     3     4    1
    18     4     5    1
    19     5     1    1
    20     1    25    1
    21    25    26   am
    22    26    27    2
    23    26    29    1
    24    29    30   ar
    25    30    31   ar
    26    31    32   ar
    27    32    35    1
    28    35    36   ar
    29    36    37   ar
    30    37    38   ar
    31    38    39   ar
    32    39    47    1
    33    47    48    3
    34    39    40   ar
    35    40    41   ar
    36    41    44    1
    37    44    45    1
    38    44    46    1
    39    41    42   ar
    40    42    43   ar
    41    32    33   ar
    42    33    34   ar
    43     5     6    1
    44     6     7    1
    45    11    12   ar
    46    12    13   ar
    47    20    14   ar
    48    13     8   ar
    49     7     2    1
    50    34    29   ar
    51    43    35   ar
    52    42    37   ar
    53    25    28    1
@<TRIPOS>MOLECULE
*****
 48 53 0 0 0
SMALL
GASTEIGER

@<TRIPOS>ATOM
      1 C         138.5790  143.2376  155.4015 C.3     1  UNL1        0.0898
      2 N         139.9837  147.3618  154.2755 N.pl3   1  UNL1       -0.2932
      3 C         140.9150  146.1925  154.1518 C.3     1  UNL1        0.0922
      4 C         140.4468  144.8178  154.5272 C.3     1  UNL1        0.0232
      5 C         139.0473  144.6124  155.0262 C.3     1  UNL1        0.0230
      6 C         138.1160  145.7817  155.1498 C.3     1  UNL1        0.0232
      7 C         138.5841  147.1564  154.7745 C.3     1  UNL1        0.0922
      8 C         141.3886  151.4859  153.1494 C.ar    1  UNL1        0.0223
      9 C         140.5004  151.2961  154.3431 C.ar    1  UNL1        0.0045
     10 C         140.0321  149.9214  154.7185 C.ar    1  UNL1        0.0343
     11 C         140.4520  148.7365  153.9002 C.ar    1  UNL1        0.1317
     12 N         141.3402  148.9263  152.7064 N.ar    1  UNL1       -0.2292
     13 C         141.8086  150.3011  152.3310 C.ar    1  UNL1        0.1004
     14 C         140.8573  153.9315  152.4516 C.ar    1  UNL1        0.1385
     15 C         141.3256  155.3061  152.0762 C.ar    1  UNL1        0.0392
     16 C         142.7936  155.6100  152.0234 C.ar    1  UNL1        0.0327
     17 C         143.7932  154.5391  152.3459 C.ar    1  UNL1        0.1403
     18 F         145.2612  154.8430  152.2930 F       1  UNL1       -0.2042
     19 C         143.3249  153.1645  152.7212 C.ar    1  UNL1        0.0327
     20 C         141.8569  152.8606  152.7741 C.ar    1  UNL1        0.0377
     21 O         139.3893  153.6276  152.5044 O.3     1  UNL1       -0.4792
     22 C         138.2893  154.4148  154.7225 C.3     1  UNL1        0.0472
     23 C         138.4590  154.5475  153.2381 C.3     1  UNL1        0.1661
     24 C         137.6984  155.6001  152.4874 C.3     1  UNL1        0.0472
     25 N         139.0897  142.5869  156.6529 N.am    1  UNL1       -0.3009
     26 C         139.3968  143.4218  157.8605 C.2     1  UNL1        0.2458
     27 O         139.1932  144.9073  157.8170 O.2     1  UNL1       -0.2701
     28 H         139.2233  141.6120  156.6815 H       1  UNL1        0.1497
     29 C         139.9075  142.7712  159.1119 C.ar    1  UNL1        0.0534
     30 C         140.5590  143.6023  160.1772 C.ar    1  UNL1        0.0047
     31 C         141.0698  142.9517  161.4286 C.ar    1  UNL1        0.0048
     32 C         140.9290  141.4700  161.6146 C.ar    1  UNL1        0.0536
     33 C         140.2775  140.6389  160.5494 C.ar    1  UNL1        0.0048
     34 C         139.7667  141.2895  159.2980 C.ar    1  UNL1        0.0047
     35 C         141.4397  140.8193  162.8660 C.ar    1  UNL1        0.2296
     36 N         142.5244  139.7861  162.9429 N.ar    1  UNL1       -0.2082
     37 C         142.7104  139.4159  164.3846 C.ar    1  UNL1        0.1192
     38 C         143.6375  138.4503  165.0612 C.ar    1  UNL1        0.0326
     39 C         143.5949  138.2890  166.5520 C.ar    1  UNL1        0.0698
     40 C         142.6252  139.0934  167.3659 C.ar    1  UNL1        0.0091
     41 C         141.6981  140.0590  166.6893 C.ar    1  UNL1        0.0143
     42 C         141.7406  140.2203  165.1986 C.ar    1  UNL1        0.1607
     43 O         140.9553  141.0876  164.2600 O.2     1  UNL1       -0.4349
     44 C         140.7283  140.8634  167.5033 C.3     1  UNL1        0.0254
     45 C         141.0058  142.3100  167.7864 C.3     1  UNL1        0.0048
     46 C         139.4810  140.2210  168.0342 C.3     1  UNL1        0.0048
     47 C         144.5221  137.3233  167.2287 C.1     1  UNL1        0.1005
     48 N         145.4492  136.3577  167.9054 N.1     1  UNL1       -0.1908
@<TRIPOS>BOND
     1    22    23    1
     2    23    24    1
     3    23    21    1
     4    21    14    1
     5    14    15   ar
     6    15    16   ar
     7    16    17   ar
     8    17    18    1
     9    17    19   ar
    10    19    20   ar
    11    20     8    1
    12     8     9   ar
    13     9    10   ar
    14    10    11   ar
    15    11     2    1
    16     2     3    1
    17     3     4    1
    18     4     5    1
    19     5     1    1
    20     1    25    1
    21    25    26   am
    22    26    27    2
    23    26    29    1
    24    29    30   ar
    25    30    31   ar
    26    31    32   ar
    27    32    35    1
    28    35    36   ar
    29    36    37   ar
    30    37    38   ar
    31    38    39   ar
    32    39    47    1
    33    47    48    3
    34    39    40   ar
    35    40    41   ar
    36    41    44    1
    37    44    45    1
    38    44    46    1
    39    41    42   ar
    40    42    43   ar
    41    32    33   ar
    42    33    34   ar
    43     5     6    1
    44     6     7    1
    45    11    12   ar
    46    12    13   ar
    47    20    14   ar
    48    13     8   ar
    49     7     2    1
    50    34    29   ar
    51    43    35   ar
    52    42    37   ar
    53    25    28    1
@<TRIPOS>MOLECULE
*****
 48 53 0 0 0
SMALL
GASTEIGER

@<TRIPOS>ATOM
      1 C         142.3586  142.6248  157.6179 C.3     1  UNL1        0.0898
      2 N         140.9368  141.5529  161.7506 N.pl3   1  UNL1       -0.2932
      3 C         140.1137  141.1787  160.5537 C.3     1  UNL1        0.0922
      4 C         140.5876  141.5360  159.1762 C.3     1  UNL1        0.0232
      5 C         141.8846  142.2675  158.9955 C.3     1  UNL1        0.0230
      6 C         142.7077  142.6417  160.1924 C.3     1  UNL1        0.0232
      7 C         142.2338  142.2845  161.5700 C.3     1  UNL1        0.0922
      8 C         139.5147  140.4811  165.8833 C.ar    1  UNL1        0.0223
      9 C         140.0943  139.4232  164.9917 C.ar    1  UNL1        0.0045
     10 C         140.5683  139.7804  163.6142 C.ar    1  UNL1        0.0343
     11 C         140.4628  141.1956  163.1282 C.ar    1  UNL1        0.1317
     12 N         139.8832  142.2535  164.0198 N.ar    1  UNL1       -0.2292
     13 C         139.4092  141.8963  165.3974 C.ar    1  UNL1        0.1004
     14 C         139.6852  140.7503  168.4618 C.ar    1  UNL1        0.1385
     15 C         139.2111  140.3929  169.8393 C.ar    1  UNL1        0.0392
     16 C         138.0927  139.4091  170.0159 C.ar    1  UNL1        0.0327
     17 C         137.4483  138.7826  168.8150 C.ar    1  UNL1        0.1403
     18 F         136.3299  137.7987  168.9916 F       1  UNL1       -0.2042
     19 C         137.9223  139.1399  167.4375 C.ar    1  UNL1        0.0327
     20 C         139.0408  140.1238  167.2609 C.ar    1  UNL1        0.0377
     21 O         140.8036  141.7341  168.2852 O.3     1  UNL1       -0.4792
     22 C         143.1866  142.2980  169.1531 C.3     1  UNL1        0.0472
     23 C         142.2185  141.3182  168.5592 C.3     1  UNL1        0.1661
     24 C         142.6654  139.9226  168.2391 C.3     1  UNL1        0.0472
     25 N         143.7714  142.3282  157.2104 N.am    1  UNL1       -0.3009
     26 C         144.2820  142.7959  155.8798 C.2     1  UNL1        0.2458
     27 O         143.3800  143.5602  154.9568 O.2     1  UNL1       -0.2701
     28 H         144.3635  141.8265  157.8162 H       1  UNL1        0.1497
     29 C         145.6948  142.4992  155.4723 C.ar    1  UNL1        0.0534
     30 C         146.0166  142.2129  154.0355 C.ar    1  UNL1        0.0047
     31 C         147.4293  141.9163  153.6279 C.ar    1  UNL1        0.0048
     32 C         148.5204  141.9059  154.6572 C.ar    1  UNL1        0.0536
     33 C         148.1986  142.1922  156.0940 C.ar    1  UNL1        0.0048
     34 C         146.7859  142.4889  156.5016 C.ar    1  UNL1        0.0047
     35 C         149.9332  141.6093  154.2497 C.ar    1  UNL1        0.2296
     36 N         150.4797  140.2623  153.8795 N.ar    1  UNL1       -0.2082
     37 C         151.9317  140.4281  153.5418 C.ar    1  UNL1        0.1192
     38 C         152.9797  139.4465  153.1082 C.ar    1  UNL1        0.0326
     39 C         154.3787  139.9144  152.8360 C.ar    1  UNL1        0.0698
     40 C         154.7296  141.3637  152.9976 C.ar    1  UNL1        0.0091
     41 C         153.6816  142.3453  153.4313 C.ar    1  UNL1        0.0143
     42 C         152.2827  141.8775  153.7034 C.ar    1  UNL1        0.1607
     43 O         151.0475  142.6075  154.1409 O.2     1  UNL1       -0.4349
     44 C         154.0326  143.7947  153.5928 C.3     1  UNL1        0.0254
     45 C         153.5571  144.7984  152.5846 C.3     1  UNL1        0.0048
     46 C         154.8590  144.2404  154.7627 C.3     1  UNL1        0.0048
     47 C         155.4268  138.9328  152.4023 C.1     1  UNL1        0.1005
     48 N         156.4749  137.9512  151.9687 N.1     1  UNL1       -0.1908
@<TRIPOS>BOND
     1    22    23    1
     2    23    24    1
     3    23    21    1
     4    21    14    1
     5    14    15   ar
     6    15    16   ar
     7    16    17   ar
     8    17    18    1
     9    17    19   ar
    10    19    20   ar
    11    20     8    1
    12     8     9   ar
    13     9    10   ar
    14    10    11   ar
    15    11     2    1
    16     2     3    1
    17     3     4    1
    18     4     5    1
    19     5     1    1
    20     1    25    1
    21    25    26   am
    22    26    27    2
    23    26    29    1
    24    29    30   ar
    25    30    31   ar
    26    31    32   ar
    27    32    35    1
    28    35    36   ar
    29    36    37   ar
    30    37    38   ar
    31    38    39   ar
    32    39    47    1
    33    47    48    3
    34    39    40   ar
    35    40    41   ar
    36    41    44    1
    37    44    45    1
    38    44    46    1
    39    41    42   ar
    40    42    43   ar
    41    32    33   ar
    42    33    34   ar
    43     5     6    1
    44     6     7    1
    45    11    12   ar
    46    12    13   ar
    47    20    14   ar
    48    13     8   ar
    49     7     2    1
    50    34    29   ar
    51    43    35   ar
    52    42    37   ar
    53    25    28    1
@<TRIPOS>MOLECULE
*****
 48 53 0 0 0
SMALL
GASTEIGER

@<TRIPOS>ATOM
      1 C         138.3156  143.0581  155.9454 C.3     1  UNL1        0.0898
      2 N         139.7840  147.1015  154.6244 N.pl3   1  UNL1       -0.2932
      3 C         140.7633  145.9940  154.8782 C.3     1  UNL1        0.0922
      4 C         140.2739  144.6462  155.3185 C.3     1  UNL1        0.0232
      5 C         138.8051  144.4059  155.5051 C.3     1  UNL1        0.0230
      6 C         137.8257  145.5134  155.2513 C.3     1  UNL1        0.0232
      7 C         138.3151  146.8612  154.8109 C.3     1  UNL1        0.0922
      8 C         141.2525  151.1448  153.3033 C.ar    1  UNL1        0.0223
      9 C         140.3719  151.0247  154.5116 C.ar    1  UNL1        0.0045
     10 C         139.8823  149.6770  154.9520 C.ar    1  UNL1        0.0343
     11 C         140.2735  148.4492  154.1841 C.ar    1  UNL1        0.1317
     12 N         141.1541  148.5693  152.9758 N.ar    1  UNL1       -0.2292
     13 C         141.6437  149.9171  152.5353 C.ar    1  UNL1        0.1004
     14 C         140.7662  153.6109  152.6465 C.ar    1  UNL1        0.1385
     15 C         141.2558  154.9586  152.2061 C.ar    1  UNL1        0.0392
     16 C         142.7211  155.1880  151.9823 C.ar    1  UNL1        0.0327
     17 C         143.6970  154.0696  152.1987 C.ar    1  UNL1        0.1403
     18 F         145.1623  154.2989  151.9748 F       1  UNL1       -0.2042
     19 C         143.2074  152.7218  152.6391 C.ar    1  UNL1        0.0327
     20 C         141.7420  152.4925  152.8629 C.ar    1  UNL1        0.0377
     21 O         139.3008  153.3816  152.8704 O.3     1  UNL1       -0.4792
     22 C         137.7887  155.4862  152.6864 C.3     1  UNL1        0.0472
     23 C         138.4669  154.4432  153.5243 C.3     1  UNL1        0.1661
     24 C         138.3113  154.4618  155.0161 C.3     1  UNL1        0.0472
     25 N         138.4327  142.6510  157.3844 N.am    1  UNL1       -0.3009
     26 C         139.1704  143.5262  158.3537 C.2     1  UNL1        0.2458
     27 O         139.7911  144.8085  157.8841 O.2     1  UNL1       -0.2701
     28 H         138.0253  141.8094  157.6926 H       1  UNL1        0.1497
     29 C         139.2875  143.1191  159.7926 C.ar    1  UNL1        0.0534
     30 C         138.4914  141.9583  160.3108 C.ar    1  UNL1        0.0047
     31 C         138.6084  141.5511  161.7498 C.ar    1  UNL1        0.0048
     32 C         139.5217  142.3049  162.6706 C.ar    1  UNL1        0.0536
     33 C         140.3178  143.4657  162.1524 C.ar    1  UNL1        0.0048
     34 C         140.2008  143.8729  160.7134 C.ar    1  UNL1        0.0047
     35 C         139.6388  141.8978  164.1095 C.ar    1  UNL1        0.2296
     36 N         140.3610  142.6552  165.1841 N.ar    1  UNL1       -0.2082
     37 C         140.2227  141.8873  166.4652 C.ar    1  UNL1        0.1192
     38 C         140.7280  142.1507  167.8527 C.ar    1  UNL1        0.0326
     39 C         140.4255  141.1821  168.9575 C.ar    1  UNL1        0.0698
     40 C         139.6179  139.9502  168.6747 C.ar    1  UNL1        0.0091
     41 C         139.1126  139.6868  167.2871 C.ar    1  UNL1        0.0143
     42 C         139.4151  140.6553  166.1824 C.ar    1  UNL1        0.1607
     43 O         139.0541  140.6618  164.7265 O.2     1  UNL1       -0.4349
     44 C         138.3050  138.4548  167.0043 C.3     1  UNL1        0.0254
     45 C         137.1371  138.1066  167.8787 C.3     1  UNL1        0.0048
     46 C         138.6653  137.5710  165.8470 C.3     1  UNL1        0.0048
     47 C         140.9307  141.4455  170.3451 C.1     1  UNL1        0.1005
     48 N         141.4359  141.7089  171.7327 N.1     1  UNL1       -0.1908
@<TRIPOS>BOND
     1    22    23    1
     2    23    24    1
     3    23    21    1
     4    21    14    1
     5    14    15   ar
     6    15    16   ar
     7    16    17   ar
     8    17    18    1
     9    17    19   ar
    10    19    20   ar
    11    20     8    1
    12     8     9   ar
    13     9    10   ar
    14    10    11   ar
    15    11     2    1
    16     2     3    1
    17     3     4    1
    18     4     5    1
    19     5     1    1
    20     1    25    1
    21    25    26   am
    22    26    27    2
    23    26    29    1
    24    29    30   ar
    25    30    31   ar
    26    31    32   ar
    27    32    35    1
    28    35    36   ar
    29    36    37   ar
    30    37    38   ar
    31    38    39   ar
    32    39    47    1
    33    47    48    3
    34    39    40   ar
    35    40    41   ar
    36    41    44    1
    37    44    45    1
    38    44    46    1
    39    41    42   ar
    40    42    43   ar
    41    32    33   ar
    42    33    34   ar
    43     5     6    1
    44     6     7    1
    45    11    12   ar
    46    12    13   ar
    47    20    14   ar
    48    13     8   ar
    49     7     2    1
    50    34    29   ar
    51    43    35   ar
    52    42    37   ar
    53    25    28    1
