@<TRIPOS>MOLECULE
*****
 25 29 0 0 0
SMALL
GASTEIGER

@<TRIPOS>ATOM
      1 C         142.9722  140.4532  165.3078 C.ar    1  UNL1        0.2118
      2 C         142.2735  141.7803  165.3323 C.ar    1  UNL1        0.1822
      3 O         141.6124  142.2567  166.5917 O.2     1  UNL1       -0.4501
      4 C         141.6500  141.4059  167.8266 C.ar    1  UNL1        0.1515
      5 C         142.3487  140.0788  167.8020 C.ar    1  UNL1        0.0768
      6 C         142.3864  139.2281  169.0368 C.ar    1  UNL1        0.0095
      7 C         141.7253  139.7044  170.2962 C.ar    1  UNL1        0.0378
      8 C         141.0266  141.0315  170.3208 C.ar    1  UNL1        0.1484
      9 O         140.2915  141.7589  171.4074 O.2     1  UNL1       -0.4503
     10 C         139.7997  143.0591  170.8441 C.ar    1  UNL1        0.1797
     11 C         140.2307  143.1354  169.4094 C.ar    1  UNL1        0.0467
     12 C         140.9890  141.8823  169.0859 C.ar    1  UNL1        0.0723
     13 C         143.0098  139.6025  166.5425 C.ar    1  UNL1        0.2352
     14 O         143.7085  138.2754  166.5180 O.2     1  UNL1       -0.2831
     15 C         142.2359  142.6312  164.0975 C.ar    1  UNL1        0.0409
     16 C         143.3618  143.5779  163.8043 C.ar    1  UNL1        0.0065
     17 C         143.3241  144.4286  162.5696 C.ar    1  UNL1        0.0403
     18 C         142.1604  144.3327  161.6279 C.ar    1  UNL1        0.1764
     19 C         141.0345  143.3860  161.9211 C.ar    1  UNL1        0.1765
     20 C         141.0722  142.5353  163.1559 C.ar    1  UNL1        0.0433
     21 O         140.0269  143.5080  160.8167 O.3     1  UNL1       -0.4346
     22 C         140.5301  144.5300  159.8409 C.3     1  UNL1        0.4294
     23 O         141.8487  145.0398  160.3423 O.3     1  UNL1       -0.4346
     24 C         145.0999  140.2100  163.8368 C.3     1  UNL1        0.2528
     25 O         143.6333  139.9769  164.0483 O.3     1  UNL1       -0.4653
@<TRIPOS>BOND
     1    24    25    1
     2    25     1    1
     3     1     2   ar
     4     2    15    1
     5    15    16   ar
     6    16    17   ar
     7    17    18   ar
     8    18    19   ar
     9    19    20   ar
    10    19    21    1
    11    21    22    1
    12    22    23    1
    13     2     3   ar
    14     3     4   ar
    15     4     5   ar
    16     5     6   ar
    17     6     7   ar
    18     7     8   ar
    19     8     9   ar
    20     9    10   ar
    21    10    11   ar
    22    11    12   ar
    23     5    13   ar
    24    13    14    2
    25    13     1   ar
    26    20    15   ar
    27    12     4   ar
    28    23    18    1
    29    12     8   ar
@<TRIPOS>MOLECULE
*****
 25 29 0 0 0
SMALL
GASTEIGER

@<TRIPOS>ATOM
      1 C         139.9359  139.2054  165.4109 C.ar    1  UNL1        0.2118
      2 C         141.2954  139.8114  165.2255 C.ar    1  UNL1        0.1822
      3 O         141.9288  140.5880  166.3416 O.2     1  UNL1       -0.4501
      4 C         141.2027  140.7586  167.6430 C.ar    1  UNL1        0.1515
      5 C         139.8432  140.1526  167.8284 C.ar    1  UNL1        0.0768
      6 C         139.1171  140.3231  169.1297 C.ar    1  UNL1        0.0095
      7 C         139.7505  141.0997  170.2459 C.ar    1  UNL1        0.0378
      8 C         141.1100  141.7058  170.0605 C.ar    1  UNL1        0.1484
      9 O         141.9799  142.5177  170.9738 O.2     1  UNL1       -0.4503
     10 C         143.2437  142.8489  170.2368 C.ar    1  UNL1        0.1797
     11 C         143.1548  142.2417  168.8681 C.ar    1  UNL1        0.0467
     12 C         141.8361  141.5352  168.7591 C.ar    1  UNL1        0.0723
     13 C         139.2098  139.3759  166.7122 C.ar    1  UNL1        0.2352
     14 O         137.8502  138.7699  166.8975 O.2     1  UNL1       -0.2831
     15 C         142.0217  139.6409  163.9242 C.ar    1  UNL1        0.0409
     16 C         142.8615  138.4206  163.6881 C.ar    1  UNL1        0.0065
     17 C         143.5876  138.2502  162.3868 C.ar    1  UNL1        0.0403
     18 C         143.4740  139.3000  161.3213 C.ar    1  UNL1        0.1764
     19 C         142.6342  140.5202  161.5574 C.ar    1  UNL1        0.1765
     20 C         141.9080  140.6906  162.8588 C.ar    1  UNL1        0.0433
     21 O         142.7110  141.3801  160.3307 O.3     1  UNL1       -0.4346
     22 C         143.5983  140.6913  159.3367 C.3     1  UNL1        0.4294
     23 O         144.0698  139.4057  159.9489 O.3     1  UNL1       -0.4346
     24 C         138.4495  139.1325  163.2812 C.3     1  UNL1        0.2528
     25 O         139.3025  138.4287  164.2947 O.3     1  UNL1       -0.4653
@<TRIPOS>BOND
     1    24    25    1
     2    25     1    1
     3     1     2   ar
     4     2    15    1
     5    15    16   ar
     6    16    17   ar
     7    17    18   ar
     8    18    19   ar
     9    19    20   ar
    10    19    21    1
    11    21    22    1
    12    22    23    1
    13     2     3   ar
    14     3     4   ar
    15     4     5   ar
    16     5     6   ar
    17     6     7   ar
    18     7     8   ar
    19     8     9   ar
    20     9    10   ar
    21    10    11   ar
    22    11    12   ar
    23     5    13   ar
    24    13    14    2
    25    13     1   ar
    26    20    15   ar
    27    12     4   ar
    28    23    18    1
    29    12     8   ar
@<TRIPOS>MOLECULE
*****
 25 29 0 0 0
SMALL
GASTEIGER

@<TRIPOS>ATOM
      1 C         143.4060  141.0651  164.3870 C.ar    1  UNL1        0.2118
      2 C         142.4631  141.9324  165.1671 C.ar    1  UNL1        0.1822
      3 O         141.7094  143.0306  164.4771 O.2     1  UNL1       -0.4501
      4 C         141.8986  143.2614  163.0071 C.ar    1  UNL1        0.1515
      5 C         142.8415  142.3940  162.2270 C.ar    1  UNL1        0.0768
      6 C         143.0308  142.6248  160.7571 C.ar    1  UNL1        0.0095
      7 C         142.2771  143.7230  160.0671 C.ar    1  UNL1        0.0378
      8 C         141.3342  144.5903  160.8472 C.ar    1  UNL1        0.1484
      9 O         140.4610  145.7409  160.4424 O.2     1  UNL1       -0.4503
     10 C         139.7322  146.2212  161.6623 C.ar    1  UNL1        0.1797
     11 C         140.1548  145.3675  162.8210 C.ar    1  UNL1        0.0467
     12 C         141.1449  144.3595  162.3172 C.ar    1  UNL1        0.0723
     13 C         143.5952  141.2958  162.9170 C.ar    1  UNL1        0.2352
     14 O         144.5381  140.4285  162.1369 O.2     1  UNL1       -0.2831
     15 C         142.2738  141.7017  166.6371 C.ar    1  UNL1        0.0409
     16 C         143.2098  142.3363  167.6226 C.ar    1  UNL1        0.0065
     17 C         143.0204  142.1056  169.0925 C.ar    1  UNL1        0.0403
     18 C         141.8950  141.2402  169.5771 C.ar    1  UNL1        0.1764
     19 C         140.9591  140.6056  168.5916 C.ar    1  UNL1        0.1765
     20 C         141.1484  140.8364  167.1216 C.ar    1  UNL1        0.0433
     21 O         139.9480  139.8076  169.3603 O.3     1  UNL1       -0.4346
     22 C         140.2591  139.9491  170.8208 C.3     1  UNL1        0.4294
     23 O         141.4624  140.8345  170.9548 O.3     1  UNL1       -0.4346
     24 C         143.5296  138.6162  165.2458 C.3     1  UNL1        0.2528
     25 O         144.1597  139.9669  165.0770 O.3     1  UNL1       -0.4653
@<TRIPOS>BOND
     1    24    25    1
     2    25     1    1
     3     1     2   ar
     4     2    15    1
     5    15    16   ar
     6    16    17   ar
     7    17    18   ar
     8    18    19   ar
     9    19    20   ar
    10    19    21    1
    11    21    22    1
    12    22    23    1
    13     2     3   ar
    14     3     4   ar
    15     4     5   ar
    16     5     6   ar
    17     6     7   ar
    18     7     8   ar
    19     8     9   ar
    20     9    10   ar
    21    10    11   ar
    22    11    12   ar
    23     5    13   ar
    24    13    14    2
    25    13     1   ar
    26    20    15   ar
    27    12     4   ar
    28    23    18    1
    29    12     8   ar
@<TRIPOS>MOLECULE
*****
 25 29 0 0 0
SMALL
GASTEIGER

@<TRIPOS>ATOM
      1 C         139.9144  139.3471  163.6936 C.ar    1  UNL1        0.2118
      2 C         140.2750  140.5142  164.5640 C.ar    1  UNL1        0.1822
      3 O         140.2778  141.9019  163.9945 O.2     1  UNL1       -0.4501
      4 C         139.9200  142.1225  162.5547 C.ar    1  UNL1        0.1515
      5 C         139.5593  140.9553  161.6842 C.ar    1  UNL1        0.0768
      6 C         139.2014  141.1758  160.2444 C.ar    1  UNL1        0.0095
      7 C         139.2042  142.5635  159.6749 C.ar    1  UNL1        0.0378
      8 C         139.5649  143.7307  160.5453 C.ar    1  UNL1        0.1484
      9 O         139.6539  145.2017  160.2655 O.2     1  UNL1       -0.4503
     10 C         140.0667  145.8903  161.5326 C.ar    1  UNL1        0.1797
     11 C         140.2329  144.8449  162.5954 C.ar    1  UNL1        0.0467
     12 C         139.9228  143.5101  161.9852 C.ar    1  UNL1        0.0723
     13 C         139.5565  139.5676  162.2538 C.ar    1  UNL1        0.2352
     14 O         139.1958  138.4004  161.3833 O.2     1  UNL1       -0.2831
     15 C         140.6329  140.2938  166.0040 C.ar    1  UNL1        0.0409
     16 C         142.0597  140.0416  166.3921 C.ar    1  UNL1        0.0065
     17 C         142.4175  139.8211  167.8319 C.ar    1  UNL1        0.0403
     18 C         141.3485  139.8529  168.8838 C.ar    1  UNL1        0.1764
     19 C         139.9218  140.1051  168.4957 C.ar    1  UNL1        0.1765
     20 C         139.5640  140.3256  167.0557 C.ar    1  UNL1        0.0433
     21 O         139.0904  140.0795  169.7439 O.3     1  UNL1       -0.4346
     22 C         140.0033  139.8114  170.9035 C.3     1  UNL1        0.4294
     23 O         141.3990  139.6714  170.3719 O.3     1  UNL1       -0.4346
     24 C         141.1264  137.0901  164.1263 C.3     1  UNL1        0.2528
     25 O         139.9116  137.9594  164.2631 O.3     1  UNL1       -0.4653
@<TRIPOS>BOND
     1    24    25    1
     2    25     1    1
     3     1     2   ar
     4     2    15    1
     5    15    16   ar
     6    16    17   ar
     7    17    18   ar
     8    18    19   ar
     9    19    20   ar
    10    19    21    1
    11    21    22    1
    12    22    23    1
    13     2     3   ar
    14     3     4   ar
    15     4     5   ar
    16     5     6   ar
    17     6     7   ar
    18     7     8   ar
    19     8     9   ar
    20     9    10   ar
    21    10    11   ar
    22    11    12   ar
    23     5    13   ar
    24    13    14    2
    25    13     1   ar
    26    20    15   ar
    27    12     4   ar
    28    23    18    1
    29    12     8   ar
@<TRIPOS>MOLECULE
*****
 25 29 0 0 0
SMALL
GASTEIGER

@<TRIPOS>ATOM
      1 C         143.1602  141.3629  164.7755 C.ar    1  UNL1        0.2118
      2 C         142.3512  140.4068  163.9500 C.ar    1  UNL1        0.1822
      3 O         141.1297  139.7603  164.5331 O.2     1  UNL1       -0.4501
      4 C         140.7171  140.0700  165.9416 C.ar    1  UNL1        0.1515
      5 C         141.5261  141.0261  166.7670 C.ar    1  UNL1        0.0768
      6 C         141.1135  141.3358  168.1754 C.ar    1  UNL1        0.0095
      7 C         139.8919  140.6894  168.7586 C.ar    1  UNL1        0.0378
      8 C         139.0830  139.7332  167.9331 C.ar    1  UNL1        0.1484
      9 O         137.8406  138.9490  168.2353 O.2     1  UNL1       -0.4503
     10 C         137.4853  138.1546  167.0135 C.ar    1  UNL1        0.1797
     11 C         138.5082  138.4478  165.9563 C.ar    1  UNL1        0.0467
     12 C         139.4956  139.4235  166.5246 C.ar    1  UNL1        0.0723
     13 C         142.7476  141.6726  166.1839 C.ar    1  UNL1        0.2352
     14 O         143.5566  142.6287  167.0093 O.2     1  UNL1       -0.2831
     15 C         142.7638  140.0970  162.5415 C.ar    1  UNL1        0.0409
     16 C         143.6655  138.9310  162.2632 C.ar    1  UNL1        0.0065
     17 C         144.0779  138.6214  160.8547 C.ar    1  UNL1        0.0403
     18 C         143.5887  139.4776  159.7244 C.ar    1  UNL1        0.1764
     19 C         142.6870  140.6436  160.0027 C.ar    1  UNL1        0.1765
     20 C         142.2746  140.9533  161.4112 C.ar    1  UNL1        0.0433
     21 O         142.3663  141.3040  158.6947 O.3     1  UNL1       -0.4346
     22 C         143.0697  140.5462  157.6080 C.3     1  UNL1        0.4294
     23 O         143.8252  139.4175  158.2444 O.3     1  UNL1       -0.4346
     24 C         144.2868  143.3741  163.5772 C.3     1  UNL1        0.2528
     25 O         144.3817  142.0094  164.1923 O.3     1  UNL1       -0.4653
@<TRIPOS>BOND
     1    24    25    1
     2    25     1    1
     3     1     2   ar
     4     2    15    1
     5    15    16   ar
     6    16    17   ar
     7    17    18   ar
     8    18    19   ar
     9    19    20   ar
    10    19    21    1
    11    21    22    1
    12    22    23    1
    13     2     3   ar
    14     3     4   ar
    15     4     5   ar
    16     5     6   ar
    17     6     7   ar
    18     7     8   ar
    19     8     9   ar
    20     9    10   ar
    21    10    11   ar
    22    11    12   ar
    23     5    13   ar
    24    13    14    2
    25    13     1   ar
    26    20    15   ar
    27    12     4   ar
    28    23    18    1
    29    12     8   ar
@<TRIPOS>MOLECULE
*****
 25 29 0 0 0
SMALL
GASTEIGER

@<TRIPOS>ATOM
      1 C         139.0611  140.0328  165.7505 C.ar    1  UNL1        0.2118
      2 C         140.1114  141.0745  165.5024 C.ar    1  UNL1        0.1822
      3 O         140.8563  141.6782  166.6560 O.2     1  UNL1       -0.4501
      4 C         140.5509  141.2400  168.0577 C.ar    1  UNL1        0.1515
      5 C         139.5006  140.1983  168.3058 C.ar    1  UNL1        0.0768
      6 C         139.1952  139.7602  169.7074 C.ar    1  UNL1        0.0095
      7 C         139.9401  140.3638  170.8611 C.ar    1  UNL1        0.0378
      8 C         140.9904  141.4055  170.6130 C.ar    1  UNL1        0.1484
      9 O         141.8818  142.1736  171.5433 O.2     1  UNL1       -0.4503
     10 C         142.7381  143.0864  170.7166 C.ar    1  UNL1        0.1797
     11 C         142.3759  142.8825  169.2753 C.ar    1  UNL1        0.0467
     12 C         141.2958  141.8436  169.2112 C.ar    1  UNL1        0.0723
     13 C         138.7557  139.5947  167.1522 C.ar    1  UNL1        0.2352
     14 O         137.7054  138.5529  167.4003 O.2     1  UNL1       -0.2831
     15 C         140.4168  141.5128  164.1007 C.ar    1  UNL1        0.0409
     16 C         141.5662  140.8999  163.3569 C.ar    1  UNL1        0.0065
     17 C         141.8716  141.3381  161.9553 C.ar    1  UNL1        0.0403
     18 C         141.0276  142.3893  161.2973 C.ar    1  UNL1        0.1764
     19 C         139.8782  143.0021  162.0412 C.ar    1  UNL1        0.1765
     20 C         139.5728  142.5639  163.4428 C.ar    1  UNL1        0.0433
     21 O         139.2273  144.0093  161.1402 O.3     1  UNL1       -0.4346
     22 C         139.9744  144.0189  159.8395 C.3     1  UNL1        0.4294
     23 O         141.0871  143.0176  159.9367 O.3     1  UNL1       -0.4346
     24 C         138.8506  138.2028  163.9184 C.3     1  UNL1        0.2528
     25 O         138.3162  139.4292  164.5969 O.3     1  UNL1       -0.4653
@<TRIPOS>BOND
     1    24    25    1
     2    25     1    1
     3     1     2   ar
     4     2    15    1
     5    15    16   ar
     6    16    17   ar
     7    17    18   ar
     8    18    19   ar
     9    19    20   ar
    10    19    21    1
    11    21    22    1
    12    22    23    1
    13     2     3   ar
    14     3     4   ar
    15     4     5   ar
    16     5     6   ar
    17     6     7   ar
    18     7     8   ar
    19     8     9   ar
    20     9    10   ar
    21    10    11   ar
    22    11    12   ar
    23     5    13   ar
    24    13    14    2
    25    13     1   ar
    26    20    15   ar
    27    12     4   ar
    28    23    18    1
    29    12     8   ar
@<TRIPOS>MOLECULE
*****
 25 29 0 0 0
SMALL
GASTEIGER

@<TRIPOS>ATOM
      1 C         139.6057  140.7238  165.1285 C.ar    1  UNL1        0.2118
      2 C         140.7325  141.7118  165.1929 C.ar    1  UNL1        0.1822
      3 O         141.3064  142.1092  166.5206 O.2     1  UNL1       -0.4501
      4 C         140.7535  141.5187  167.7838 C.ar    1  UNL1        0.1515
      5 C         139.6267  140.5307  167.7193 C.ar    1  UNL1        0.0768
      6 C         139.0738  139.9402  168.9823 C.ar    1  UNL1        0.0095
      7 C         139.6477  140.3376  170.3101 C.ar    1  UNL1        0.0378
      8 C         140.7745  141.3256  170.3746 C.ar    1  UNL1        0.1484
      9 O         141.5375  141.9039  171.5293 O.2     1  UNL1       -0.4503
     10 C         142.5619  142.8518  170.9799 C.ar    1  UNL1        0.1797
     11 C         142.4321  142.8594  169.4855 C.ar    1  UNL1        0.0467
     12 C         141.3274  141.9162  169.1114 C.ar    1  UNL1        0.0723
     13 C         139.0528  140.1333  166.3915 C.ar    1  UNL1        0.2352
     14 O         137.9260  139.1453  166.3271 O.2     1  UNL1       -0.2831
     15 C         141.2855  142.3024  163.9298 C.ar    1  UNL1        0.0409
     16 C         140.8426  143.6636  163.4816 C.ar    1  UNL1        0.0065
     17 C         141.3956  144.2541  162.2186 C.ar    1  UNL1        0.0403
     18 C         142.3915  143.4834  161.4035 C.ar    1  UNL1        0.1764
     19 C         142.8343  142.1221  161.8517 C.ar    1  UNL1        0.1765
     20 C         142.2813  141.5316  163.1148 C.ar    1  UNL1        0.0433
     21 O         143.8216  141.6025  160.8491 O.3     1  UNL1       -0.4346
     22 C         143.9890  142.6427  159.7814 C.3     1  UNL1        0.4294
     23 O         143.1051  143.8051  160.1241 O.3     1  UNL1       -0.4346
     24 C         137.7708  140.9704  163.3057 C.3     1  UNL1        0.2528
     25 O         139.0318  140.3264  163.8007 O.3     1  UNL1       -0.4653
@<TRIPOS>BOND
     1    24    25    1
     2    25     1    1
     3     1     2   ar
     4     2    15    1
     5    15    16   ar
     6    16    17   ar
     7    17    18   ar
     8    18    19   ar
     9    19    20   ar
    10    19    21    1
    11    21    22    1
    12    22    23    1
    13     2     3   ar
    14     3     4   ar
    15     4     5   ar
    16     5     6   ar
    17     6     7   ar
    18     7     8   ar
    19     8     9   ar
    20     9    10   ar
    21    10    11   ar
    22    11    12   ar
    23     5    13   ar
    24    13    14    2
    25    13     1   ar
    26    20    15   ar
    27    12     4   ar
    28    23    18    1
    29    12     8   ar
@<TRIPOS>MOLECULE
*****
 25 29 0 0 0
SMALL
GASTEIGER

@<TRIPOS>ATOM
      1 C         142.5238  140.6384  164.5182 C.ar    1  UNL1        0.2118
      2 C         141.5078  141.5090  165.1963 C.ar    1  UNL1        0.1822
      3 O         140.9473  142.7031  164.4823 O.2     1  UNL1       -0.4501
      4 C         141.4028  143.0267  163.0902 C.ar    1  UNL1        0.1515
      5 C         142.4188  142.1561  162.4121 C.ar    1  UNL1        0.0768
      6 C         142.8743  142.4797  161.0202 C.ar    1  UNL1        0.0095
      7 C         142.3138  143.6739  160.3061 C.ar    1  UNL1        0.0378
      8 C         141.2978  144.5445  160.9842 C.ar    1  UNL1        0.1484
      9 O         140.5729  145.7782  160.5342 O.2     1  UNL1       -0.4503
     10 C         139.6694  146.2171  161.6482 C.ar    1  UNL1        0.1797
     11 C         139.8359  145.2546  162.7867 C.ar    1  UNL1        0.0467
     12 C         140.8423  144.2209  162.3762 C.ar    1  UNL1        0.0723
     13 C         142.9793  140.9619  163.1262 C.ar    1  UNL1        0.2352
     14 O         143.9953  140.0913  162.4481 O.2     1  UNL1       -0.2831
     15 C         141.0523  141.1854  166.5883 C.ar    1  UNL1        0.0409
     16 C         139.8505  140.3132  166.8006 C.ar    1  UNL1        0.0065
     17 C         139.3951  139.9898  168.1926 C.ar    1  UNL1        0.0403
     18 C         140.1413  140.5385  169.3725 C.ar    1  UNL1        0.1764
     19 C         141.3430  141.4107  169.1603 C.ar    1  UNL1        0.1765
     20 C         141.7985  141.7342  167.7682 C.ar    1  UNL1        0.0433
     21 O         141.8740  141.8039  170.5068 O.3     1  UNL1       -0.4346
     22 C         141.0005  141.1747  171.5513 C.3     1  UNL1        0.4294
     23 O         139.9296  140.3927  170.8503 O.3     1  UNL1       -0.4346
     24 C         142.4041  138.1125  165.1145 C.3     1  UNL1        0.2528
     25 O         143.0843  139.4442  165.2322 O.3     1  UNL1       -0.4653
@<TRIPOS>BOND
     1    24    25    1
     2    25     1    1
     3     1     2   ar
     4     2    15    1
     5    15    16   ar
     6    16    17   ar
     7    17    18   ar
     8    18    19   ar
     9    19    20   ar
    10    19    21    1
    11    21    22    1
    12    22    23    1
    13     2     3   ar
    14     3     4   ar
    15     4     5   ar
    16     5     6   ar
    17     6     7   ar
    18     7     8   ar
    19     8     9   ar
    20     9    10   ar
    21    10    11   ar
    22    11    12   ar
    23     5    13   ar
    24    13    14    2
    25    13     1   ar
    26    20    15   ar
    27    12     4   ar
    28    23    18    1
    29    12     8   ar
@<TRIPOS>MOLECULE
*****
 25 29 0 0 0
SMALL
GASTEIGER

@<TRIPOS>ATOM
      1 C         139.1371  143.6693  163.8249 C.ar    1  UNL1        0.2118
      2 C         140.0938  142.5565  164.1352 C.ar    1  UNL1        0.1822
      3 O         141.1892  142.2177  163.1681 O.2     1  UNL1       -0.4501
      4 C         141.3278  142.9916  161.8907 C.ar    1  UNL1        0.1515
      5 C         140.3711  144.1044  161.5804 C.ar    1  UNL1        0.0768
      6 C         140.5097  144.8784  160.3031 C.ar    1  UNL1        0.0095
      7 C         141.6051  144.5396  159.3359 C.ar    1  UNL1        0.0378
      8 C         142.5619  143.4268  159.6462 C.ar    1  UNL1        0.1484
      9 O         143.7315  142.8689  158.8907 O.2     1  UNL1       -0.4503
     10 C         144.3157  141.7501  159.7013 C.ar    1  UNL1        0.1797
     11 C         143.5072  141.6165  160.9576 C.ar    1  UNL1        0.0467
     12 C         142.4232  142.6528  160.9236 C.ar    1  UNL1        0.0723
     13 C         139.2757  144.4432  162.5476 C.ar    1  UNL1        0.2352
     14 O         138.3190  145.5561  162.2373 O.2     1  UNL1       -0.2831
     15 C         139.9552  141.7825  165.4126 C.ar    1  UNL1        0.0409
     16 C         139.1927  140.4908  165.4281 C.ar    1  UNL1        0.0065
     17 C         139.0542  139.7169  166.7054 C.ar    1  UNL1        0.0403
     18 C         139.6782  140.2346  167.9675 C.ar    1  UNL1        0.1764
     19 C         140.4407  141.5262  167.9520 C.ar    1  UNL1        0.1765
     20 C         140.5792  142.3002  166.6746 C.ar    1  UNL1        0.0433
     21 O         140.9428  141.7846  169.3416 O.3     1  UNL1       -0.4346
     22 C         140.4907  140.6527  170.2158 C.3     1  UNL1        0.4294
     23 O         139.7091  139.6947  169.3665 O.3     1  UNL1       -0.4346
     24 C         138.2576  145.0722  165.8270 C.3     1  UNL1        0.2528
     25 O         138.0417  144.0081  164.7921 O.3     1  UNL1       -0.4653
@<TRIPOS>BOND
     1    24    25    1
     2    25     1    1
     3     1     2   ar
     4     2    15    1
     5    15    16   ar
     6    16    17   ar
     7    17    18   ar
     8    18    19   ar
     9    19    20   ar
    10    19    21    1
    11    21    22    1
    12    22    23    1
    13     2     3   ar
    14     3     4   ar
    15     4     5   ar
    16     5     6   ar
    17     6     7   ar
    18     7     8   ar
    19     8     9   ar
    20     9    10   ar
    21    10    11   ar
    22    11    12   ar
    23     5    13   ar
    24    13    14    2
    25    13     1   ar
    26    20    15   ar
    27    12     4   ar
    28    23    18    1
    29    12     8   ar
