@<TRIPOS>MOLECULE
*****
 44 48 0 0 0
SMALL
GASTEIGER

@<TRIPOS>ATOM
      1 N         143.7358  140.4275  161.9074 N.ar    1  UNL1       -0.2926
      2 C         143.4139  140.3788  160.4432 C.ar    1  UNL1        0.2611
      3 O         144.1183  141.2976  159.4894 O.2     1  UNL1       -0.2670
      4 C         142.3877  139.4112  159.9326 C.ar    1  UNL1        0.0623
      5 C         141.6833  138.4924  160.8863 C.ar    1  UNL1        0.0255
      6 C         142.0051  138.5411  162.3506 C.ar    1  UNL1        0.0975
      7 N         141.3007  137.6223  163.3043 N.ar    1  UNL1       -0.2392
      8 C         141.6226  137.6710  164.7685 C.ar    1  UNL1        0.1363
      9 C         142.6488  138.6386  165.2790 C.ar    1  UNL1        0.1658
     10 C         143.3532  139.5574  164.3254 C.ar    1  UNL1        0.0579
     11 C         143.0314  139.5087  162.8611 C.ar    1  UNL1        0.0832
     12 C         144.7620  141.3951  162.4179 C.3     1  UNL1        0.1264
     13 C         144.4989  142.8705  162.3540 C.3     1  UNL1        0.0970
     14 C         140.6733  144.5484  164.0270 C.3     1  UNL1        0.0570
     15 C         141.1274  144.9427  162.6528 C.3     1  UNL1        0.0331
     16 C         142.4026  144.3833  162.0951 C.3     1  UNL1        0.0735
     17 N         143.2237  143.4298  162.9117 N.3     1  UNL1       -0.2710
     18 C         142.7696  143.0357  164.2858 C.3     1  UNL1        0.0735
     19 C         141.4944  143.5950  164.8435 C.3     1  UNL1        0.0331
     20 N         139.3981  145.1078  164.5847 N.3     1  UNL1       -0.2947
     21 H         139.4978  145.1126  165.5998 H       1  UNL1        0.1235
     22 C         138.0900  144.4393  164.2813 C.3     1  UNL1        0.0972
     23 C         138.0077  138.8105  162.2053 C.3     1  UNL1        0.0528
     24 C         138.0283  140.2177  162.7243 C.ar    1  UNL1        0.0689
     25 N         137.9384  141.3707  161.7692 N.ar    1  UNL1       -0.2477
     26 C         137.9590  142.7780  162.2882 C.ar    1  UNL1        0.0955
     27 C         138.0694  143.0321  163.7623 C.ar    1  UNL1        0.0135
     28 C         138.1593  141.8791  164.7175 C.ar    1  UNL1        0.0101
     29 C         138.1388  140.4719  164.1985 C.ar    1  UNL1        0.0817
     30 C         138.2287  139.3188  165.1537 C.1     1  UNL1        0.1016
     31 N         138.3186  138.1658  166.1089 N.1     1  UNL1       -0.1908
     32 O         142.9707  138.6873  166.7434 O.3     1  UNL1       -0.4519
     33 C         142.2192  139.6205  167.6458 C.ar    1  UNL1        0.1455
     34 C         142.5406  139.6687  169.1101 C.ar    1  UNL1        0.0389
     35 C         141.7891  140.6020  170.0126 C.ar    1  UNL1        0.0230
     36 C         140.7163  141.4869  169.4506 C.ar    1  UNL1        0.1219
     37 C         140.3949  141.4387  167.9863 C.ar    1  UNL1        0.0230
     38 C         141.1463  140.5055  167.0838 C.ar    1  UNL1        0.0389
     39 S         139.9648  142.4202  170.3530 S.O2    1  UNL1        0.0572
     40 N         139.2134  143.3534  171.2555 N.3     1  UNL1       -0.2035
     41 O         138.8371  141.4344  170.4334 O.2     1  UNL1       -0.1532
     42 O         141.0925  143.4059  170.2727 O.2     1  UNL1       -0.1532
     43 H         138.3200  142.9330  171.5116 H       1  UNL1        0.1442
     44 H         139.0475  144.2353  170.7705 H       1  UNL1        0.1442
@<TRIPOS>BOND
     1    23    24    1
     2    24    25   ar
     3    25    26   ar
     4    26    27   ar
     5    27    22    1
     6    22    20    1
     7    20    14    1
     8    14    15    1
     9    15    16    1
    10    16    17    1
    11    17    13    1
    12    13    12    1
    13    12     1    1
    14     1     2   ar
    15     2     3    2
    16     2     4   ar
    17     4     5   ar
    18     5     6   ar
    19     6     7   ar
    20     7     8   ar
    21     8     9   ar
    22     9    32    1
    23    32    33    1
    24    33    34   ar
    25    34    35   ar
    26    35    36   ar
    27    36    39    1
    28    39    40    1
    29    39    41    2
    30    39    42    2
    31    36    37   ar
    32    37    38   ar
    33     9    10   ar
    34    10    11   ar
    35    17    18    1
    36    18    19    1
    37    27    28   ar
    38    28    29   ar
    39    29    30    1
    40    30    31    3
    41    29    24   ar
    42    19    14    1
    43    11     1   ar
    44    11     6   ar
    45    38    33   ar
    46    20    21    1
    47    40    43    1
    48    40    44    1
@<TRIPOS>MOLECULE
*****
 44 48 0 0 0
SMALL
GASTEIGER

@<TRIPOS>ATOM
      1 N         138.0326  141.5950  163.0910 N.ar    1  UNL1       -0.2926
      2 C         137.9661  141.5956  161.5925 C.ar    1  UNL1        0.2611
      3 O         137.7066  142.8751  160.8538 O.2     1  UNL1       -0.2670
      4 C         138.1591  140.3168  160.8327 C.ar    1  UNL1        0.0623
      5 C         138.4186  139.0374  161.5714 C.ar    1  UNL1        0.0255
      6 C         138.4851  139.0367  163.0699 C.ar    1  UNL1        0.0975
      7 N         138.7445  137.7573  163.8086 N.ar    1  UNL1       -0.2392
      8 C         138.8110  137.7567  165.3071 C.ar    1  UNL1        0.1363
      9 C         138.6180  139.0355  166.0669 C.ar    1  UNL1        0.1658
     10 C         138.3586  140.3149  165.3283 C.ar    1  UNL1        0.0579
     11 C         138.2921  140.3155  163.8298 C.ar    1  UNL1        0.0832
     12 C         137.8396  142.8739  163.8509 C.3     1  UNL1        0.1264
     13 C         138.8007  144.0102  163.6631 C.3     1  UNL1        0.0970
     14 C         143.1871  143.4026  164.4632 C.3     1  UNL1        0.0570
     15 C         142.1708  142.9388  165.4643 C.3     1  UNL1        0.0331
     16 C         140.7087  143.1413  165.1976 C.3     1  UNL1        0.0735
     17 N         140.2628  143.8077  163.9298 N.3     1  UNL1       -0.2710
     18 C         141.2791  144.2714  162.9287 C.3     1  UNL1        0.0735
     19 C         142.7412  144.0689  163.1954 C.3     1  UNL1        0.0331
     20 N         144.6492  143.2001  164.7299 N.3     1  UNL1       -0.2947
     21 H         145.1363  143.9976  164.3212 H       1  UNL1        0.1235
     22 C         145.3396  141.9670  164.2269 C.3     1  UNL1        0.0972
     23 C         142.1760  137.6567  161.5043 C.3     1  UNL1        0.0528
     24 C         142.9669  138.7343  162.1850 C.ar    1  UNL1        0.0689
     25 N         142.9747  138.8269  163.6820 N.ar    1  UNL1       -0.2477
     26 C         143.7656  139.9045  164.3627 C.ar    1  UNL1        0.0955
     27 C         144.5487  140.8895  163.5463 C.ar    1  UNL1        0.0135
     28 C         144.5409  140.7968  162.0492 C.ar    1  UNL1        0.0101
     29 C         143.7500  139.7192  161.3685 C.ar    1  UNL1        0.0817
     30 C         143.7422  139.6266  159.8714 C.1     1  UNL1        0.1016
     31 N         143.7345  139.5340  158.3743 N.1     1  UNL1       -0.1908
     32 O         138.6845  139.0349  167.5655 O.3     1  UNL1       -0.4519
     33 C         139.6436  139.9448  168.2741 C.ar    1  UNL1        0.1455
     34 C         141.0427  140.1080  167.7584 C.ar    1  UNL1        0.0389
     35 C         142.0019  141.0179  168.4671 C.ar    1  UNL1        0.0230
     36 C         141.5619  141.7647  169.6913 C.ar    1  UNL1        0.1219
     37 C         140.1628  141.6015  170.2069 C.ar    1  UNL1        0.0230
     38 C         139.2037  140.6916  169.4984 C.ar    1  UNL1        0.0389
     39 S         142.5210  142.6746  170.3998 S.O2    1  UNL1        0.0572
     40 N         143.4802  143.5845  171.1084 N.3     1  UNL1       -0.2035
     41 O         141.7411  142.5075  171.6702 O.2     1  UNL1       -0.1532
     42 O         143.3009  142.8417  169.1295 O.2     1  UNL1       -0.1532
     43 H         143.1976  143.6837  172.0835 H       1  UNL1        0.1442
     44 H         143.4759  144.4999  170.6584 H       1  UNL1        0.1442
@<TRIPOS>BOND
     1    23    24    1
     2    24    25   ar
     3    25    26   ar
     4    26    27   ar
     5    27    22    1
     6    22    20    1
     7    20    14    1
     8    14    15    1
     9    15    16    1
    10    16    17    1
    11    17    13    1
    12    13    12    1
    13    12     1    1
    14     1     2   ar
    15     2     3    2
    16     2     4   ar
    17     4     5   ar
    18     5     6   ar
    19     6     7   ar
    20     7     8   ar
    21     8     9   ar
    22     9    32    1
    23    32    33    1
    24    33    34   ar
    25    34    35   ar
    26    35    36   ar
    27    36    39    1
    28    39    40    1
    29    39    41    2
    30    39    42    2
    31    36    37   ar
    32    37    38   ar
    33     9    10   ar
    34    10    11   ar
    35    17    18    1
    36    18    19    1
    37    27    28   ar
    38    28    29   ar
    39    29    30    1
    40    30    31    3
    41    29    24   ar
    42    19    14    1
    43    11     1   ar
    44    11     6   ar
    45    38    33   ar
    46    20    21    1
    47    40    43    1
    48    40    44    1
@<TRIPOS>MOLECULE
*****
 44 48 0 0 0
SMALL
GASTEIGER

@<TRIPOS>ATOM
      1 N         140.8966  138.1700  162.4837 N.ar    1  UNL1       -0.2926
      2 C         140.8441  138.2896  160.9894 C.ar    1  UNL1        0.2611
      3 O         139.6101  137.8708  160.2464 O.2     1  UNL1       -0.2670
      4 C         142.0254  138.8281  160.2381 C.ar    1  UNL1        0.0623
      5 C         143.2593  139.2469  160.9810 C.ar    1  UNL1        0.0255
      6 C         143.3119  139.1273  162.4754 C.ar    1  UNL1        0.0975
      7 N         144.5458  139.5461  163.2183 N.ar    1  UNL1       -0.2392
      8 C         144.5984  139.4265  164.7126 C.ar    1  UNL1        0.1363
      9 C         143.4171  138.8881  165.4639 C.ar    1  UNL1        0.1658
     10 C         142.1832  138.4692  164.7210 C.ar    1  UNL1        0.0579
     11 C         142.1306  138.5888  163.2267 C.ar    1  UNL1        0.0832
     12 C         139.7153  137.6315  163.2350 C.3     1  UNL1        0.1264
     13 C         138.4064  138.3635  163.1990 C.3     1  UNL1        0.0970
     14 C         138.3014  142.8177  163.8306 C.3     1  UNL1        0.0570
     15 C         137.6937  142.2208  162.5959 C.3     1  UNL1        0.0331
     16 C         137.7287  140.7360  162.3853 C.3     1  UNL1        0.0735
     17 N         138.3714  139.8482  163.4095 N.3     1  UNL1       -0.2710
     18 C         138.9791  140.4452  164.6441 C.3     1  UNL1        0.0735
     19 C         138.9441  141.9299  164.8547 C.3     1  UNL1        0.0331
     20 N         138.2664  144.3024  164.0412 N.3     1  UNL1       -0.2947
     21 H         137.3233  144.6111  163.8052 H       1  UNL1        0.1235
     22 C         139.2134  145.1892  163.2884 C.3     1  UNL1        0.0972
     23 C         144.7610  143.2770  162.0367 C.3     1  UNL1        0.0528
     24 C         143.3741  143.7551  162.3496 C.ar    1  UNL1        0.0689
     25 N         142.3391  143.8153  161.2656 N.ar    1  UNL1       -0.2477
     26 C         140.9522  144.2934  161.5785 C.ar    1  UNL1        0.0955
     27 C         140.6003  144.7112  162.9754 C.ar    1  UNL1        0.0135
     28 C         141.6352  144.6509  164.0595 C.ar    1  UNL1        0.0101
     29 C         143.0221  144.1728  163.7465 C.ar    1  UNL1        0.0817
     30 C         144.0571  144.1126  164.8307 C.1     1  UNL1        0.1016
     31 N         145.0920  144.0523  165.9147 N.1     1  UNL1       -0.1908
     32 O         143.4697  138.7685  166.9582 O.3     1  UNL1       -0.4519
     33 C         142.6357  139.6759  167.8131 C.ar    1  UNL1        0.1455
     34 C         142.1629  140.9921  167.2707 C.ar    1  UNL1        0.0389
     35 C         141.3289  141.8996  168.1256 C.ar    1  UNL1        0.0230
     36 C         140.9675  141.4909  169.5229 C.ar    1  UNL1        0.1219
     37 C         141.4403  140.1747  170.0653 C.ar    1  UNL1        0.0230
     38 C         142.2743  139.2672  169.2104 C.ar    1  UNL1        0.0389
     39 S         140.1335  142.3984  170.3777 S.O2    1  UNL1        0.0572
     40 N         139.2994  143.3059  171.2327 N.3     1  UNL1       -0.2035
     41 O         141.2335  143.4182  170.3684 O.2     1  UNL1       -0.1532
     42 O         139.0336  141.3786  170.3871 O.2     1  UNL1       -0.1532
     43 H         139.8155  144.1654  171.4204 H       1  UNL1        0.1442
     44 H         139.0836  142.8395  172.1137 H       1  UNL1        0.1442
@<TRIPOS>BOND
     1    23    24    1
     2    24    25   ar
     3    25    26   ar
     4    26    27   ar
     5    27    22    1
     6    22    20    1
     7    20    14    1
     8    14    15    1
     9    15    16    1
    10    16    17    1
    11    17    13    1
    12    13    12    1
    13    12     1    1
    14     1     2   ar
    15     2     3    2
    16     2     4   ar
    17     4     5   ar
    18     5     6   ar
    19     6     7   ar
    20     7     8   ar
    21     8     9   ar
    22     9    32    1
    23    32    33    1
    24    33    34   ar
    25    34    35   ar
    26    35    36   ar
    27    36    39    1
    28    39    40    1
    29    39    41    2
    30    39    42    2
    31    36    37   ar
    32    37    38   ar
    33     9    10   ar
    34    10    11   ar
    35    17    18    1
    36    18    19    1
    37    27    28   ar
    38    28    29   ar
    39    29    30    1
    40    30    31    3
    41    29    24   ar
    42    19    14    1
    43    11     1   ar
    44    11     6   ar
    45    38    33   ar
    46    20    21    1
    47    40    43    1
    48    40    44    1
@<TRIPOS>MOLECULE
*****
 44 48 0 0 0
SMALL
GASTEIGER

@<TRIPOS>ATOM
      1 N         141.2370  144.4263  162.4633 N.ar    1  UNL1       -0.2926
      2 C         141.1502  144.5415  160.9703 C.ar    1  UNL1        0.2611
      3 O         139.9862  145.2463  160.3388 O.2     1  UNL1       -0.2670
      4 C         142.2272  143.9520  160.1086 C.ar    1  UNL1        0.0623
      5 C         143.3911  143.2473  160.7400 C.ar    1  UNL1        0.0255
      6 C         143.4780  143.1320  162.2331 C.ar    1  UNL1        0.0975
      7 N         144.6419  142.4273  162.8645 N.ar    1  UNL1       -0.2392
      8 C         144.7287  142.3121  164.3575 C.ar    1  UNL1        0.1363
      9 C         143.6517  142.9016  165.2191 C.ar    1  UNL1        0.1658
     10 C         142.4878  143.6064  164.5878 C.ar    1  UNL1        0.0579
     11 C         142.4009  143.7216  163.0947 C.ar    1  UNL1        0.0832
     12 C         140.1600  145.0159  163.3249 C.3     1  UNL1        0.1264
     13 C         138.7828  144.4213  163.3159 C.3     1  UNL1        0.0970
     14 C         138.1079  140.2835  164.9510 C.3     1  UNL1        0.0570
     15 C         138.9412  141.2666  165.7187 C.3     1  UNL1        0.0331
     16 C         139.1661  142.6459  165.1737 C.3     1  UNL1        0.0735
     17 N         138.5578  143.0420  163.8610 N.3     1  UNL1       -0.2710
     18 C         137.7246  142.0590  163.0933 C.3     1  UNL1        0.0735
     19 C         137.4997  140.6797  163.6383 C.3     1  UNL1        0.0331
     20 N         137.8829  138.9042  165.4960 N.3     1  UNL1       -0.2947
     21 H         137.5636  139.0163  166.4582 H       1  UNL1        0.1235
     22 C         139.0114  137.9166  165.5266 C.3     1  UNL1        0.0972
     23 C         143.2160  138.0320  161.2477 C.3     1  UNL1        0.0528
     24 C         142.1648  138.0031  162.3174 C.ar    1  UNL1        0.0689
     25 N         140.7658  137.5781  161.9829 N.ar    1  UNL1       -0.2477
     26 C         139.7147  137.5492  163.0526 C.ar    1  UNL1        0.0955
     27 C         140.0626  137.9455  164.4569 C.ar    1  UNL1        0.0135
     28 C         141.4616  138.3705  164.7914 C.ar    1  UNL1        0.0101
     29 C         142.5127  138.3994  163.7217 C.ar    1  UNL1        0.0817
     30 C         143.9119  138.8245  164.0562 C.1     1  UNL1        0.1016
     31 N         145.3109  139.2496  164.3908 N.1     1  UNL1       -0.1908
     32 O         143.7385  142.7864  166.7122 O.3     1  UNL1       -0.4519
     33 C         142.6175  142.1536  167.4821 C.ar    1  UNL1        0.1455
     34 C         142.4894  140.6598  167.5292 C.ar    1  UNL1        0.0389
     35 C         141.3683  140.0271  168.2991 C.ar    1  UNL1        0.0230
     36 C         140.3753  140.8881  169.0219 C.ar    1  UNL1        0.1219
     37 C         140.5033  142.3818  168.9749 C.ar    1  UNL1        0.0230
     38 C         141.6244  143.0146  168.2050 C.ar    1  UNL1        0.0389
     39 S         139.2542  140.2553  169.7918 S.O2    1  UNL1        0.0572
     40 N         138.1331  139.6224  170.5617 N.3     1  UNL1       -0.2035
     41 O         139.7040  140.9681  171.0326 O.2     1  UNL1       -0.1532
     42 O         138.8045  139.5425  168.5510 O.2     1  UNL1       -0.1532
     43 H         138.1673  139.9360  171.5317 H       1  UNL1        0.1442
     44 H         138.2286  138.6075  170.5289 H       1  UNL1        0.1442
@<TRIPOS>BOND
     1    23    24    1
     2    24    25   ar
     3    25    26   ar
     4    26    27   ar
     5    27    22    1
     6    22    20    1
     7    20    14    1
     8    14    15    1
     9    15    16    1
    10    16    17    1
    11    17    13    1
    12    13    12    1
    13    12     1    1
    14     1     2   ar
    15     2     3    2
    16     2     4   ar
    17     4     5   ar
    18     5     6   ar
    19     6     7   ar
    20     7     8   ar
    21     8     9   ar
    22     9    32    1
    23    32    33    1
    24    33    34   ar
    25    34    35   ar
    26    35    36   ar
    27    36    39    1
    28    39    40    1
    29    39    41    2
    30    39    42    2
    31    36    37   ar
    32    37    38   ar
    33     9    10   ar
    34    10    11   ar
    35    17    18    1
    36    18    19    1
    37    27    28   ar
    38    28    29   ar
    39    29    30    1
    40    30    31    3
    41    29    24   ar
    42    19    14    1
    43    11     1   ar
    44    11     6   ar
    45    38    33   ar
    46    20    21    1
    47    40    43    1
    48    40    44    1
@<TRIPOS>MOLECULE
*****
 44 48 0 0 0
SMALL
GASTEIGER

@<TRIPOS>ATOM
      1 N         140.6637  144.7909  162.8164 N.ar    1  UNL1       -0.2926
      2 C         140.3506  145.3978  161.4809 C.ar    1  UNL1        0.2611
      3 O         139.2151  146.3687  161.3460 O.2     1  UNL1       -0.2670
      4 C         141.1730  145.0340  160.2804 C.ar    1  UNL1        0.0623
      5 C         142.3084  144.0632  160.4153 C.ar    1  UNL1        0.0255
      6 C         142.6216  143.4562  161.7508 C.ar    1  UNL1        0.0975
      7 N         143.7571  142.4854  161.8857 N.ar    1  UNL1       -0.2392
      8 C         144.0702  141.8784  163.2212 C.ar    1  UNL1        0.1363
      9 C         143.2478  142.2423  164.4217 C.ar    1  UNL1        0.1658
     10 C         142.1123  143.2131  164.2868 C.ar    1  UNL1        0.0579
     11 C         141.7992  143.8200  162.9514 C.ar    1  UNL1        0.0832
     12 C         139.8414  145.1547  164.0170 C.3     1  UNL1        0.1264
     13 C         138.5242  144.4782  164.2568 C.3     1  UNL1        0.0970
     14 C         137.7841  140.3512  162.6229 C.3     1  UNL1        0.0570
     15 C         137.7140  141.5417  161.7130 C.3     1  UNL1        0.0331
     16 C         137.9607  142.9174  162.2577 C.3     1  UNL1        0.0735
     17 N         138.2775  143.1025  163.7122 N.3     1  UNL1       -0.2710
     18 C         138.3475  141.9120  164.6219 C.3     1  UNL1        0.0735
     19 C         138.1008  140.5363  164.0773 C.3     1  UNL1        0.0331
     20 N         137.5374  138.9755  162.0782 N.3     1  UNL1       -0.2947
     21 H         136.5917  138.7138  162.3567 H       1  UNL1        0.1235
     22 C         138.4349  137.8404  162.4731 C.3     1  UNL1        0.0972
     23 C         144.3712  138.3153  161.7420 C.3     1  UNL1        0.0528
     24 C         142.8871  138.1966  161.9248 C.ar    1  UNL1        0.0689
     25 N         142.3116  138.0326  163.3002 N.ar    1  UNL1       -0.2477
     26 C         140.8275  137.9139  163.4830 C.ar    1  UNL1        0.0955
     27 C         139.9189  137.9591  162.2903 C.ar    1  UNL1        0.0135
     28 C         140.4945  138.1230  160.9149 C.ar    1  UNL1        0.0101
     29 C         141.9785  138.2418  160.7321 C.ar    1  UNL1        0.0817
     30 C         142.5540  138.4057  159.3566 C.1     1  UNL1        0.1016
     31 N         143.1295  138.5695  157.9811 N.1     1  UNL1       -0.1908
     32 O         143.5610  141.6353  165.7572 O.3     1  UNL1       -0.4519
     33 C         142.4504  141.3049  166.7099 C.ar    1  UNL1        0.1455
     34 C         141.4813  140.2083  166.3807 C.ar    1  UNL1        0.0389
     35 C         140.3707  139.8779  167.3334 C.ar    1  UNL1        0.0230
     36 C         140.2293  140.6440  168.6152 C.ar    1  UNL1        0.1219
     37 C         141.1985  141.7406  168.9443 C.ar    1  UNL1        0.0230
     38 C         142.3090  142.0710  167.9917 C.ar    1  UNL1        0.0389
     39 S         139.1188  140.3136  169.5678 S.O2    1  UNL1        0.0572
     40 N         138.0082  139.9832  170.5204 N.3     1  UNL1       -0.2035
     41 O         139.6996  141.2624  170.5739 O.2     1  UNL1       -0.1532
     42 O         138.5380  139.3648  168.5616 O.2     1  UNL1       -0.1532
     43 H         138.1288  140.5166  171.3814 H       1  UNL1        0.1442
     44 H         138.0279  138.9857  170.7328 H       1  UNL1        0.1442
@<TRIPOS>BOND
     1    23    24    1
     2    24    25   ar
     3    25    26   ar
     4    26    27   ar
     5    27    22    1
     6    22    20    1
     7    20    14    1
     8    14    15    1
     9    15    16    1
    10    16    17    1
    11    17    13    1
    12    13    12    1
    13    12     1    1
    14     1     2   ar
    15     2     3    2
    16     2     4   ar
    17     4     5   ar
    18     5     6   ar
    19     6     7   ar
    20     7     8   ar
    21     8     9   ar
    22     9    32    1
    23    32    33    1
    24    33    34   ar
    25    34    35   ar
    26    35    36   ar
    27    36    39    1
    28    39    40    1
    29    39    41    2
    30    39    42    2
    31    36    37   ar
    32    37    38   ar
    33     9    10   ar
    34    10    11   ar
    35    17    18    1
    36    18    19    1
    37    27    28   ar
    38    28    29   ar
    39    29    30    1
    40    30    31    3
    41    29    24   ar
    42    19    14    1
    43    11     1   ar
    44    11     6   ar
    45    38    33   ar
    46    20    21    1
    47    40    43    1
    48    40    44    1
@<TRIPOS>MOLECULE
*****
 44 48 0 0 0
SMALL
GASTEIGER

@<TRIPOS>ATOM
      1 N         140.8988  144.6701  162.6589 N.ar    1  UNL1       -0.2926
      2 C         140.6509  145.2508  161.2983 C.ar    1  UNL1        0.2611
      3 O         139.5936  146.2984  161.1113 O.2     1  UNL1       -0.2670
      4 C         141.4601  144.7840  160.1247 C.ar    1  UNL1        0.0623
      5 C         142.5173  143.7365  160.3117 C.ar    1  UNL1        0.0255
      6 C         142.7653  143.1557  161.6724 C.ar    1  UNL1        0.0975
      7 N         143.8225  142.1082  161.8594 N.ar    1  UNL1       -0.2392
      8 C         144.0704  141.5275  163.2199 C.ar    1  UNL1        0.1363
      9 C         143.2612  141.9943  164.3935 C.ar    1  UNL1        0.1658
     10 C         142.2040  143.0418  164.2065 C.ar    1  UNL1        0.0579
     11 C         141.9561  143.6225  162.8459 C.ar    1  UNL1        0.0832
     12 C         140.0896  145.1369  163.8325 C.3     1  UNL1        0.1264
     13 C         138.7357  144.5457  164.0927 C.3     1  UNL1        0.0970
     14 C         137.6484  140.5508  162.3296 C.3     1  UNL1        0.0570
     15 C         137.8468  141.7372  161.4333 C.3     1  UNL1        0.0331
     16 C         138.2092  143.0688  162.0210 C.3     1  UNL1        0.0735
     17 N         138.3733  143.2141  163.5050 N.3     1  UNL1       -0.2710
     18 C         138.1749  142.0277  164.4012 C.3     1  UNL1        0.0735
     19 C         137.8124  140.6961  163.8135 C.3     1  UNL1        0.0331
     20 N         137.2859  139.2192  161.7419 N.3     1  UNL1       -0.2947
     21 H         136.3232  139.0273  162.0188 H       1  UNL1        0.1235
     22 C         138.0882  138.0012  162.0926 C.3     1  UNL1        0.0972
     23 C         144.0832  138.2409  162.0426 C.3     1  UNL1        0.0528
     24 C         142.5844  138.1810  162.0551 C.ar    1  UNL1        0.0689
     25 N         141.8235  138.1692  160.7626 N.ar    1  UNL1       -0.2477
     26 C         140.3248  138.1093  160.7750 C.ar    1  UNL1        0.0955
     27 C         139.5869  138.0611  162.0801 C.ar    1  UNL1        0.0135
     28 C         140.3479  138.0729  163.3727 C.ar    1  UNL1        0.0101
     29 C         141.8466  138.1328  163.3602 C.ar    1  UNL1        0.0817
     30 C         142.6075  138.1446  164.6529 C.1     1  UNL1        0.1016
     31 N         143.3684  138.1564  165.9455 N.1     1  UNL1       -0.1908
     32 O         143.5092  141.4135  165.7542 O.3     1  UNL1       -0.4519
     33 C         142.6164  141.7829  166.9014 C.ar    1  UNL1        0.1455
     34 C         141.1412  141.5245  166.8173 C.ar    1  UNL1        0.0389
     35 C         140.2484  141.8940  167.9646 C.ar    1  UNL1        0.0230
     36 C         140.8308  142.5219  169.1961 C.ar    1  UNL1        0.1219
     37 C         142.3059  142.7803  169.2803 C.ar    1  UNL1        0.0230
     38 C         143.1987  142.4108  168.1330 C.ar    1  UNL1        0.0389
     39 S         139.9379  142.8913  170.3434 S.O2    1  UNL1        0.0572
     40 N         139.0451  143.2608  171.4908 N.3     1  UNL1       -0.2035
     41 O         139.3502  141.5113  170.3304 O.2     1  UNL1       -0.1532
     42 O         140.5256  144.2713  170.3564 O.2     1  UNL1       -0.1532
     43 H         138.4659  142.4598  171.7425 H       1  UNL1        0.1442
     44 H         138.4468  144.0408  171.2185 H       1  UNL1        0.1442
@<TRIPOS>BOND
     1    23    24    1
     2    24    25   ar
     3    25    26   ar
     4    26    27   ar
     5    27    22    1
     6    22    20    1
     7    20    14    1
     8    14    15    1
     9    15    16    1
    10    16    17    1
    11    17    13    1
    12    13    12    1
    13    12     1    1
    14     1     2   ar
    15     2     3    2
    16     2     4   ar
    17     4     5   ar
    18     5     6   ar
    19     6     7   ar
    20     7     8   ar
    21     8     9   ar
    22     9    32    1
    23    32    33    1
    24    33    34   ar
    25    34    35   ar
    26    35    36   ar
    27    36    39    1
    28    39    40    1
    29    39    41    2
    30    39    42    2
    31    36    37   ar
    32    37    38   ar
    33     9    10   ar
    34    10    11   ar
    35    17    18    1
    36    18    19    1
    37    27    28   ar
    38    28    29   ar
    39    29    30    1
    40    30    31    3
    41    29    24   ar
    42    19    14    1
    43    11     1   ar
    44    11     6   ar
    45    38    33   ar
    46    20    21    1
    47    40    43    1
    48    40    44    1
@<TRIPOS>MOLECULE
*****
 44 48 0 0 0
SMALL
GASTEIGER

@<TRIPOS>ATOM
      1 N         143.7988  141.0799  161.5974 N.ar    1  UNL1       -0.2926
      2 C         143.3770  140.9483  160.1640 C.ar    1  UNL1        0.2611
      3 O         144.0444  141.7771  159.1067 O.2     1  UNL1       -0.2670
      4 C         142.2880  139.9879  159.7878 C.ar    1  UNL1        0.0623
      5 C         141.6206  139.1592  160.8450 C.ar    1  UNL1        0.0255
      6 C         142.0423  139.2908  162.2785 C.ar    1  UNL1        0.0975
      7 N         141.3750  138.4620  163.3357 N.ar    1  UNL1       -0.2392
      8 C         141.7967  138.5936  164.7692 C.ar    1  UNL1        0.1363
      9 C         142.8858  139.5540  165.1454 C.ar    1  UNL1        0.1658
     10 C         143.5531  140.3828  164.0882 C.ar    1  UNL1        0.0579
     11 C         143.1314  140.2512  162.6548 C.ar    1  UNL1        0.0832
     12 C         144.8879  142.0403  161.9737 C.3     1  UNL1        0.1264
     13 C         144.5419  143.4332  162.4098 C.3     1  UNL1        0.0970
     14 C         140.2429  144.7604  162.4991 C.3     1  UNL1        0.0570
     15 C         140.9694  144.6585  161.1906 C.3     1  UNL1        0.0331
     16 C         142.4024  144.2162  161.1609 C.3     1  UNL1        0.0735
     17 N         143.1089  143.8756  162.4396 N.3     1  UNL1       -0.2710
     18 C         142.3824  143.9775  163.7479 C.3     1  UNL1        0.0735
     19 C         140.9495  144.4199  163.7777 C.3     1  UNL1        0.0331
     20 N         138.8100  145.2028  162.5288 N.3     1  UNL1       -0.2947
     21 H         138.7777  146.0594  163.0817 H       1  UNL1        0.1235
     22 C         137.7548  144.2909  163.0812 C.3     1  UNL1        0.0972
     23 C         138.0293  138.3928  162.0150 C.3     1  UNL1        0.0528
     24 C         137.9606  139.8673  162.2815 C.ar    1  UNL1        0.0689
     25 N         137.8171  140.3694  163.6877 N.ar    1  UNL1       -0.2477
     26 C         137.7485  141.8440  163.9542 C.ar    1  UNL1        0.0955
     27 C         137.8234  142.8164  162.8146 C.ar    1  UNL1        0.0135
     28 C         137.9670  142.3143  161.4085 C.ar    1  UNL1        0.0101
     29 C         138.0356  140.8398  161.1420 C.ar    1  UNL1        0.0817
     30 C         138.1791  140.3377  159.7357 C.1     1  UNL1        0.1016
     31 N         138.3227  139.8356  158.3296 N.1     1  UNL1       -0.1908
     32 O         143.3075  139.6856  166.5789 O.3     1  UNL1       -0.4519
     33 C         142.4421  140.4330  167.5497 C.ar    1  UNL1        0.1455
     34 C         142.1330  141.8823  167.3172 C.ar    1  UNL1        0.0389
     35 C         141.2675  142.6296  168.2881 C.ar    1  UNL1        0.0230
     36 C         140.7112  141.9277  169.4913 C.ar    1  UNL1        0.1219
     37 C         141.0204  140.4784  169.7238 C.ar    1  UNL1        0.0230
     38 C         141.8858  139.7311  168.7530 C.ar    1  UNL1        0.0389
     39 S         139.8458  142.6751  170.4621 S.O2    1  UNL1        0.0572
     40 N         138.9804  143.4225  171.4330 N.3     1  UNL1       -0.2035
     41 O         140.7676  143.8552  170.3753 O.2     1  UNL1       -0.1532
     42 O         138.9241  141.4950  170.5490 O.2     1  UNL1       -0.1532
     43 H         139.3751  144.3485  171.5974 H       1  UNL1        0.1442
     44 H         138.9368  142.9101  172.3139 H       1  UNL1        0.1442
@<TRIPOS>BOND
     1    23    24    1
     2    24    25   ar
     3    25    26   ar
     4    26    27   ar
     5    27    22    1
     6    22    20    1
     7    20    14    1
     8    14    15    1
     9    15    16    1
    10    16    17    1
    11    17    13    1
    12    13    12    1
    13    12     1    1
    14     1     2   ar
    15     2     3    2
    16     2     4   ar
    17     4     5   ar
    18     5     6   ar
    19     6     7   ar
    20     7     8   ar
    21     8     9   ar
    22     9    32    1
    23    32    33    1
    24    33    34   ar
    25    34    35   ar
    26    35    36   ar
    27    36    39    1
    28    39    40    1
    29    39    41    2
    30    39    42    2
    31    36    37   ar
    32    37    38   ar
    33     9    10   ar
    34    10    11   ar
    35    17    18    1
    36    18    19    1
    37    27    28   ar
    38    28    29   ar
    39    29    30    1
    40    30    31    3
    41    29    24   ar
    42    19    14    1
    43    11     1   ar
    44    11     6   ar
    45    38    33   ar
    46    20    21    1
    47    40    43    1
    48    40    44    1
@<TRIPOS>MOLECULE
*****
 44 48 0 0 0
SMALL
GASTEIGER

@<TRIPOS>ATOM
      1 N         137.8227  141.4143  162.6949 N.ar    1  UNL1       -0.2926
      2 C         137.8928  141.3079  161.2004 C.ar    1  UNL1        0.2611
      3 O         137.4729  142.4667  160.3454 O.2     1  UNL1       -0.2670
      4 C         138.3828  140.0427  160.5607 C.ar    1  UNL1        0.0623
      5 C         138.8026  138.8839  161.4156 C.ar    1  UNL1        0.0255
      6 C         138.7326  138.9903  162.9103 C.ar    1  UNL1        0.0975
      7 N         139.1524  137.8315  163.7651 N.ar    1  UNL1       -0.2392
      8 C         139.0823  137.9379  165.2597 C.ar    1  UNL1        0.1363
      9 C         138.5924  139.2032  165.8993 C.ar    1  UNL1        0.1658
     10 C         138.1725  140.3619  165.0445 C.ar    1  UNL1        0.0579
     11 C         138.2426  140.2555  163.5499 C.ar    1  UNL1        0.0832
     12 C         137.3328  142.6796  163.3346 C.3     1  UNL1        0.1264
     13 C         137.8618  144.0059  162.8751 C.3     1  UNL1        0.0970
     14 C         142.3018  144.7128  162.6824 C.3     1  UNL1        0.0570
     15 C         141.6463  144.4142  163.9982 C.3     1  UNL1        0.0331
     16 C         140.1663  144.1785  164.0624 C.3     1  UNL1        0.0735
     17 N         139.3418  144.2415  162.8109 N.3     1  UNL1       -0.2710
     18 C         139.9973  144.5402  161.4952 C.3     1  UNL1        0.0735
     19 C         141.4773  144.7758  161.4310 C.3     1  UNL1        0.0331
     20 N         143.7817  144.9485  162.6182 N.3     1  UNL1       -0.2947
     21 H         144.0202  145.0562  161.6323 H       1  UNL1        0.1235
     22 C         144.7283  143.9318  163.1841 C.3     1  UNL1        0.0972
     23 C         143.8270  138.0908  162.1499 C.3     1  UNL1        0.0528
     24 C         144.0523  139.5510  162.4084 C.ar    1  UNL1        0.0689
     25 N         144.2787  140.4897  161.2606 N.ar    1  UNL1       -0.2477
     26 C         144.5041  141.9500  161.5192 C.ar    1  UNL1        0.0955
     27 C         144.5030  142.4715  162.9256 C.ar    1  UNL1        0.0135
     28 C         144.2766  141.5328  164.0734 C.ar    1  UNL1        0.0101
     29 C         144.0513  140.0726  163.8148 C.ar    1  UNL1        0.0817
     30 C         143.8248  139.1339  164.9627 C.1     1  UNL1        0.1016
     31 N         143.5984  138.1952  166.1106 N.1     1  UNL1       -0.1908
     32 O         138.5223  139.3096  167.3940 O.3     1  UNL1       -0.4519
     33 C         139.5118  140.1614  168.1324 C.ar    1  UNL1        0.1455
     34 C         139.6577  140.0239  169.6190 C.ar    1  UNL1        0.0389
     35 C         140.6472  140.8758  170.3574 C.ar    1  UNL1        0.0230
     36 C         141.4907  141.8651  169.6093 C.ar    1  UNL1        0.1219
     37 C         141.3448  142.0026  168.1228 C.ar    1  UNL1        0.0230
     38 C         140.3554  141.1508  167.3843 C.ar    1  UNL1        0.0389
     39 S         142.4802  142.7169  170.3478 S.O2    1  UNL1        0.0572
     40 N         143.4697  143.5688  171.0862 N.3     1  UNL1       -0.2035
     41 O         141.7311  142.4794  171.6254 O.2     1  UNL1       -0.1532
     42 O         143.2292  142.9545  169.0701 O.2     1  UNL1       -0.1532
     43 H         143.2137  143.6096  172.0728 H       1  UNL1        0.1442
     44 H         143.4663  144.5107  170.6948 H       1  UNL1        0.1442
@<TRIPOS>BOND
     1    23    24    1
     2    24    25   ar
     3    25    26   ar
     4    26    27   ar
     5    27    22    1
     6    22    20    1
     7    20    14    1
     8    14    15    1
     9    15    16    1
    10    16    17    1
    11    17    13    1
    12    13    12    1
    13    12     1    1
    14     1     2   ar
    15     2     3    2
    16     2     4   ar
    17     4     5   ar
    18     5     6   ar
    19     6     7   ar
    20     7     8   ar
    21     8     9   ar
    22     9    32    1
    23    32    33    1
    24    33    34   ar
    25    34    35   ar
    26    35    36   ar
    27    36    39    1
    28    39    40    1
    29    39    41    2
    30    39    42    2
    31    36    37   ar
    32    37    38   ar
    33     9    10   ar
    34    10    11   ar
    35    17    18    1
    36    18    19    1
    37    27    28   ar
    38    28    29   ar
    39    29    30    1
    40    30    31    3
    41    29    24   ar
    42    19    14    1
    43    11     1   ar
    44    11     6   ar
    45    38    33   ar
    46    20    21    1
    47    40    43    1
    48    40    44    1
@<TRIPOS>MOLECULE
*****
 44 48 0 0 0
SMALL
GASTEIGER

@<TRIPOS>ATOM
      1 N         142.7094  138.4125  163.5047 N.ar    1  UNL1       -0.2926
      2 C         143.0344  138.0979  162.0746 C.ar    1  UNL1        0.2611
      3 O         144.4634  137.9340  161.6487 O.2     1  UNL1       -0.2670
      4 C         141.9305  137.9473  161.0702 C.ar    1  UNL1        0.0623
      5 C         140.5016  138.1113  161.4960 C.ar    1  UNL1        0.0255
      6 C         140.1765  138.4258  162.9262 C.ar    1  UNL1        0.0975
      7 N         138.7476  138.5898  163.3520 N.ar    1  UNL1       -0.2392
      8 C         138.4226  138.9043  164.7821 C.ar    1  UNL1        0.1363
      9 C         139.5265  139.0549  165.7865 C.ar    1  UNL1        0.1658
     10 C         140.9554  138.8910  165.3607 C.ar    1  UNL1        0.0579
     11 C         141.2804  138.5764  163.9306 C.ar    1  UNL1        0.0832
     12 C         143.8133  138.5631  164.5091 C.3     1  UNL1        0.1264
     13 C         144.8627  139.6177  164.3177 C.3     1  UNL1        0.0970
     14 C         143.6541  143.9069  163.6920 C.3     1  UNL1        0.0570
     15 C         143.1800  143.1635  164.9055 C.3     1  UNL1        0.0331
     16 C         143.5828  141.7338  165.1140 C.3     1  UNL1        0.0735
     17 N         144.4598  141.0474  164.1091 N.3     1  UNL1       -0.2710
     18 C         144.9339  141.7909  162.8956 C.3     1  UNL1        0.0735
     19 C         144.5311  143.2206  162.6871 C.3     1  UNL1        0.0331
     20 N         143.2513  145.3367  163.4834 N.3     1  UNL1       -0.2947
     21 H         143.5277  145.8460  164.3228 H       1  UNL1        0.1235
     22 C         141.8149  145.6806  163.2215 C.3     1  UNL1        0.0972
     23 C         138.5974  142.3942  159.3683 C.3     1  UNL1        0.0528
     24 C         139.4018  143.2158  160.3316 C.ar    1  UNL1        0.0689
     25 N         140.5162  144.0844  159.8281 N.ar    1  UNL1       -0.2477
     26 C         141.3206  144.9060  160.7914 C.ar    1  UNL1        0.0955
     27 C         141.0106  144.8590  162.2582 C.ar    1  UNL1        0.0135
     28 C         139.8961  143.9905  162.7617 C.ar    1  UNL1        0.0101
     29 C         139.0918  143.1689  161.7984 C.ar    1  UNL1        0.0817
     30 C         137.9773  142.3003  162.3020 C.1     1  UNL1        0.1016
     31 N         136.8629  141.4317  162.8056 N.1     1  UNL1       -0.1908
     32 O         139.2014  139.3694  167.2167 O.3     1  UNL1       -0.4519
     33 C         140.0826  140.2970  167.9996 C.ar    1  UNL1        0.1455
     34 C         140.3381  141.6884  167.5006 C.ar    1  UNL1        0.0389
     35 C         141.2193  142.6160  168.2836 C.ar    1  UNL1        0.0230
     36 C         141.8451  142.1523  169.5655 C.ar    1  UNL1        0.1219
     37 C         141.5897  140.7609  170.0645 C.ar    1  UNL1        0.0230
     38 C         140.7085  139.8333  169.2816 C.ar    1  UNL1        0.0389
     39 S         142.7263  143.0799  170.3484 S.O2    1  UNL1        0.0572
     40 N         143.6076  144.0075  171.1313 N.3     1  UNL1       -0.2035
     41 O         141.5721  144.0196  170.5342 O.2     1  UNL1       -0.1532
     42 O         143.8806  142.1401  170.1626 O.2     1  UNL1       -0.1532
     43 H         143.0674  144.8202  171.4279 H       1  UNL1        0.1442
     44 H         144.3859  144.3116  170.5464 H       1  UNL1        0.1442
@<TRIPOS>BOND
     1    23    24    1
     2    24    25   ar
     3    25    26   ar
     4    26    27   ar
     5    27    22    1
     6    22    20    1
     7    20    14    1
     8    14    15    1
     9    15    16    1
    10    16    17    1
    11    17    13    1
    12    13    12    1
    13    12     1    1
    14     1     2   ar
    15     2     3    2
    16     2     4   ar
    17     4     5   ar
    18     5     6   ar
    19     6     7   ar
    20     7     8   ar
    21     8     9   ar
    22     9    32    1
    23    32    33    1
    24    33    34   ar
    25    34    35   ar
    26    35    36   ar
    27    36    39    1
    28    39    40    1
    29    39    41    2
    30    39    42    2
    31    36    37   ar
    32    37    38   ar
    33     9    10   ar
    34    10    11   ar
    35    17    18    1
    36    18    19    1
    37    27    28   ar
    38    28    29   ar
    39    29    30    1
    40    30    31    3
    41    29    24   ar
    42    19    14    1
    43    11     1   ar
    44    11     6   ar
    45    38    33   ar
    46    20    21    1
    47    40    43    1
    48    40    44    1
