@<TRIPOS>MOLECULE
*****
 36 40 0 0 0
SMALL
GASTEIGER

@<TRIPOS>ATOM
      1 C         140.2484  136.8065  156.0816 C.3     1  UNL1        0.0437
      2 C         141.4034  137.6721  156.4901 C.3     1  UNL1        0.1368
      3 C         141.7864  137.3798  155.0695 C.3     1  UNL1        0.0437
      4 C         142.6913  138.4361  156.4051 C.3     1  UNL1        0.0643
      5 C         143.1952  139.1918  157.5989 C.3     1  UNL1        0.1021
      6 C         142.4111  139.1835  158.8776 C.ar    1  UNL1        0.0488
      7 C         142.9149  139.9392  160.0713 C.ar    1  UNL1        0.0034
      8 C         142.1308  139.9308  161.3500 C.ar    1  UNL1        0.0177
      9 C         140.8428  139.1667  161.4349 C.ar    1  UNL1        0.0851
     10 N         140.3389  138.4110  160.2412 N.ar    1  UNL1       -0.2119
     11 C         141.1231  138.4194  158.9625 C.ar    1  UNL1        0.2219
     12 O         140.6192  137.6637  157.7687 O.3     1  UNL1       -0.4676
     13 C         140.0587  139.1583  162.7136 C.ar    1  UNL1        0.0284
     14 C         139.0590  140.2426  162.9875 C.ar    1  UNL1        0.0032
     15 C         138.2749  140.2342  164.2663 C.ar    1  UNL1        0.0115
     16 C         138.4904  139.1415  165.2710 C.ar    1  UNL1        0.0585
     17 CL        137.7063  139.1332  166.5497 Cl      1  UNL1       -0.0822
     18 C         139.4900  138.0572  164.9971 C.ar    1  UNL1        0.0228
     19 C         140.2741  138.0656  163.7184 C.ar    1  UNL1        0.0599
     20 CL        141.2738  136.9813  163.4445 Cl      1  UNL1       -0.0822
     21 C         142.6347  140.6865  162.5437 C.ar    1  UNL1        0.0015
     22 C         142.2118  142.1087  162.7643 C.ar    1  UNL1        0.0009
     23 C         142.7156  142.8644  163.9581 C.ar    1  UNL1        0.0114
     24 C         143.6424  142.1979  164.9312 C.ar    1  UNL1        0.0577
     25 CL        144.1463  142.9536  166.1250 Cl      1  UNL1       -0.0822
     26 C         144.0653  140.7758  164.7106 C.ar    1  UNL1        0.0114
     27 C         143.5614  140.0201  163.5168 C.ar    1  UNL1        0.0009
     28 N         144.4833  139.9559  157.5139 N.am    1  UNL1       -0.3000
     29 C         144.5044  141.3244  156.9001 C.2     1  UNL1        0.2467
     30 O         143.2375  141.9288  156.3712 O.2     1  UNL1       -0.2726
     31 H         145.3147  139.5593  157.8610 H       1  UNL1        0.1498
     32 C         145.7925  142.0885  156.8151 C.3     1  UNL1        0.1563
     33 O         145.6067  143.0400  157.9597 O.3     1  UNL1       -0.3781
     34 C         147.1449  142.5221  156.3327 C.3     1  UNL1        0.0387
     35 C         146.4254  141.4023  155.6410 C.3     1  UNL1        0.0387
     36 H         144.7493  142.8743  158.3820 H       1  UNL1        0.2109
@<TRIPOS>BOND
     1     1     2    1
     2     2     3    1
     3     2     4    1
     4     4     5    1
     5     5    28    1
     6    28    29   am
     7    29    30    2
     8    29    32    1
     9    32    33    1
    10    32    34    1
    11    34    35    1
    12     5     6    1
    13     6     7   ar
    14     7     8   ar
    15     8    21    1
    16    21    22   ar
    17    22    23   ar
    18    23    24   ar
    19    24    25    1
    20    24    26   ar
    21    26    27   ar
    22     8     9   ar
    23     9    13    1
    24    13    14   ar
    25    14    15   ar
    26    15    16   ar
    27    16    17    1
    28    16    18   ar
    29    18    19   ar
    30    19    20    1
    31     9    10   ar
    32    10    11   ar
    33    11    12    1
    34    12     2    1
    35    35    32    1
    36    11     6   ar
    37    27    21   ar
    38    19    13   ar
    39    28    31    1
    40    33    36    1
@<TRIPOS>MOLECULE
*****
 36 40 0 0 0
SMALL
GASTEIGER

@<TRIPOS>ATOM
      1 C         136.7480  143.1716  155.2756 C.3     1  UNL1        0.0437
      2 C         137.4434  141.9145  155.7073 C.3     1  UNL1        0.1368
      3 C         137.2024  141.5956  154.2615 C.3     1  UNL1        0.0437
      4 C         138.0551  140.5467  155.6369 C.3     1  UNL1        0.0643
      5 C         138.6662  139.9345  156.8622 C.3     1  UNL1        0.1021
      6 C         138.6658  140.6900  158.1581 C.ar    1  UNL1        0.0488
      7 C         139.2770  140.0777  159.3834 C.ar    1  UNL1        0.0034
      8 C         139.2765  140.8332  160.6792 C.ar    1  UNL1        0.0177
      9 C         138.6649  142.2011  160.7497 C.ar    1  UNL1        0.0851
     10 N         138.0537  142.8133  159.5243 N.ar    1  UNL1       -0.2119
     11 C         138.0542  142.0578  158.2285 C.ar    1  UNL1        0.2219
     12 O         137.4430  142.6700  157.0031 O.3     1  UNL1       -0.4676
     13 C         138.6644  142.9566  162.0455 C.ar    1  UNL1        0.0284
     14 C         137.6033  142.6866  163.0708 C.ar    1  UNL1        0.0032
     15 C         137.6029  143.4421  164.3666 C.ar    1  UNL1        0.0115
     16 C         138.6636  144.4677  164.6372 C.ar    1  UNL1        0.0585
     17 CL        138.6631  145.2232  165.9330 Cl      1  UNL1       -0.0822
     18 C         139.7247  144.7377  163.6119 C.ar    1  UNL1        0.0228
     19 C         139.7251  143.9822  162.3161 C.ar    1  UNL1        0.0599
     20 CL        140.7862  144.2522  161.2909 Cl      1  UNL1       -0.0822
     21 C         139.8877  140.2209  161.9046 C.ar    1  UNL1        0.0015
     22 C         139.0815  139.2877  162.7586 C.ar    1  UNL1        0.0009
     23 C         139.6927  138.6755  163.9839 C.ar    1  UNL1        0.0114
     24 C         141.1101  138.9964  164.3554 C.ar    1  UNL1        0.0577
     25 CL        141.7213  138.3841  165.5808 Cl      1  UNL1       -0.0822
     26 C         141.9163  139.9295  163.5014 C.ar    1  UNL1        0.0114
     27 C         141.3051  140.5418  162.2761 C.ar    1  UNL1        0.0009
     28 N         139.2779  138.5666  156.7918 N.am    1  UNL1       -0.3000
     29 C         140.7449  138.4142  156.5187 C.2     1  UNL1        0.2467
     30 O         141.6003  139.6296  156.3161 O.2     1  UNL1       -0.2726
     31 H         138.7165  137.7689  156.9247 H       1  UNL1        0.1498
     32 C         141.3566  137.0463  156.4482 C.3     1  UNL1        0.1563
     33 O         140.1686  136.2532  155.9904 O.3     1  UNL1       -0.3781
     34 C         142.3808  135.9540  156.5367 C.3     1  UNL1        0.0387
     35 C         142.7569  137.3646  156.8816 C.3     1  UNL1        0.0387
     36 H         139.4062  136.8438  155.8862 H       1  UNL1        0.2109
@<TRIPOS>BOND
     1     1     2    1
     2     2     3    1
     3     2     4    1
     4     4     5    1
     5     5    28    1
     6    28    29   am
     7    29    30    2
     8    29    32    1
     9    32    33    1
    10    32    34    1
    11    34    35    1
    12     5     6    1
    13     6     7   ar
    14     7     8   ar
    15     8    21    1
    16    21    22   ar
    17    22    23   ar
    18    23    24   ar
    19    24    25    1
    20    24    26   ar
    21    26    27   ar
    22     8     9   ar
    23     9    13    1
    24    13    14   ar
    25    14    15   ar
    26    15    16   ar
    27    16    17    1
    28    16    18   ar
    29    18    19   ar
    30    19    20    1
    31     9    10   ar
    32    10    11   ar
    33    11    12    1
    34    12     2    1
    35    35    32    1
    36    11     6   ar
    37    27    21   ar
    38    19    13   ar
    39    28    31    1
    40    33    36    1
@<TRIPOS>MOLECULE
*****
 36 40 0 0 0
SMALL
GASTEIGER

@<TRIPOS>ATOM
      1 C         137.6886  138.6945  154.1049 C.3     1  UNL1        0.0437
      2 C         137.6834  140.1076  154.6081 C.3     1  UNL1        0.1368
      3 C         137.3156  140.3408  153.1727 C.3     1  UNL1        0.0437
      4 C         137.5505  141.6016  154.6128 C.3     1  UNL1        0.0643
      5 C         137.7872  142.3717  155.8780 C.3     1  UNL1        0.1021
      6 C         138.1569  141.6477  157.1387 C.ar    1  UNL1        0.0488
      7 C         138.3936  142.4178  158.4039 C.ar    1  UNL1        0.0034
      8 C         138.7632  141.6939  159.6646 C.ar    1  UNL1        0.0177
      9 C         138.8961  140.1997  159.6599 C.ar    1  UNL1        0.0851
     10 N         138.6594  139.4296  158.3946 N.ar    1  UNL1       -0.2119
     11 C         138.2898  140.1537  157.1340 C.ar    1  UNL1        0.2219
     12 O         138.0531  139.3836  155.8687 O.3     1  UNL1       -0.4676
     13 C         139.2658  139.4757  160.9205 C.ar    1  UNL1        0.0284
     14 C         138.1918  138.9715  161.8383 C.ar    1  UNL1        0.0032
     15 C         138.5614  138.2475  163.0990 C.ar    1  UNL1        0.0115
     16 C         140.0051  138.0278  163.4418 C.ar    1  UNL1        0.0585
     17 CL        140.3747  137.3038  164.7024 Cl      1  UNL1       -0.0822
     18 C         141.0791  138.5320  162.5241 C.ar    1  UNL1        0.0228
     19 C         140.7095  139.2560  161.2635 C.ar    1  UNL1        0.0599
     20 CL        141.7835  139.7602  160.3457 Cl      1  UNL1       -0.0822
     21 C         138.9999  142.4639  160.9298 C.ar    1  UNL1        0.0015
     22 C         140.3699  142.9880  161.2437 C.ar    1  UNL1        0.0009
     23 C         140.6066  143.7580  162.5090 C.ar    1  UNL1        0.0114
     24 C         139.4733  144.0041  163.4604 C.ar    1  UNL1        0.0577
     25 CL        139.7100  144.7742  164.7257 Cl      1  UNL1       -0.0822
     26 C         138.1033  143.4801  163.1465 C.ar    1  UNL1        0.0114
     27 C         137.8666  142.7100  161.8812 C.ar    1  UNL1        0.0009
     28 N         137.6543  143.8659  155.8827 N.am    1  UNL1       -0.3000
     29 C         138.8420  144.7255  155.5661 C.2     1  UNL1        0.2467
     30 O         140.1628  144.0910  155.2448 O.2     1  UNL1       -0.2726
     31 H         136.7875  144.2823  156.0935 H       1  UNL1        0.1498
     32 C         138.7091  146.2196  155.5707 C.3     1  UNL1        0.1563
     33 O         137.5551  146.3813  154.6262 O.3     1  UNL1       -0.3781
     34 C         138.9769  147.6576  155.9033 C.3     1  UNL1        0.0387
     35 C         139.8169  146.5767  156.5168 C.3     1  UNL1        0.0387
     36 H         137.2646  145.5085  154.3182 H       1  UNL1        0.2109
@<TRIPOS>BOND
     1     1     2    1
     2     2     3    1
     3     2     4    1
     4     4     5    1
     5     5    28    1
     6    28    29   am
     7    29    30    2
     8    29    32    1
     9    32    33    1
    10    32    34    1
    11    34    35    1
    12     5     6    1
    13     6     7   ar
    14     7     8   ar
    15     8    21    1
    16    21    22   ar
    17    22    23   ar
    18    23    24   ar
    19    24    25    1
    20    24    26   ar
    21    26    27   ar
    22     8     9   ar
    23     9    13    1
    24    13    14   ar
    25    14    15   ar
    26    15    16   ar
    27    16    17    1
    28    16    18   ar
    29    18    19   ar
    30    19    20    1
    31     9    10   ar
    32    10    11   ar
    33    11    12    1
    34    12     2    1
    35    35    32    1
    36    11     6   ar
    37    27    21   ar
    38    19    13   ar
    39    28    31    1
    40    33    36    1
@<TRIPOS>MOLECULE
*****
 36 40 0 0 0
SMALL
GASTEIGER

@<TRIPOS>ATOM
      1 C         139.8934  145.4063  155.1553 C.3     1  UNL1        0.0437
      2 C         140.0837  143.9488  155.4544 C.3     1  UNL1        0.1368
      3 C         140.2839  143.9379  153.9679 C.3     1  UNL1        0.0437
      4 C         140.3436  142.4876  155.2373 C.3     1  UNL1        0.0643
      5 C         140.3373  141.5434  156.4028 C.3     1  UNL1        0.1021
      6 C         140.0710  142.0604  157.7855 C.ar    1  UNL1        0.0488
      7 C         140.0647  141.1162  158.9510 C.ar    1  UNL1        0.0034
      8 C         139.7985  141.6332  160.3336 C.ar    1  UNL1        0.0177
      9 C         139.5386  143.0946  160.5508 C.ar    1  UNL1        0.0851
     10 N         139.5449  144.0388  159.3853 N.ar    1  UNL1       -0.2119
     11 C         139.8112  143.5216  158.0026 C.ar    1  UNL1        0.2219
     12 O         139.8175  144.4659  156.8371 O.3     1  UNL1       -0.4676
     13 C         139.2724  143.6116  161.9335 C.ar    1  UNL1        0.0284
     14 C         137.8936  143.5180  162.5167 C.ar    1  UNL1        0.0032
     15 C         137.6274  144.0350  163.8994 C.ar    1  UNL1        0.0115
     16 C         138.7400  144.6457  164.6988 C.ar    1  UNL1        0.0585
     17 CL        138.4738  145.1628  166.0815 Cl      1  UNL1       -0.0822
     18 C         140.1188  144.7394  164.1156 C.ar    1  UNL1        0.0228
     19 C         140.3850  144.2223  162.7330 C.ar    1  UNL1        0.0599
     20 CL        141.7638  144.3160  162.1498 Cl      1  UNL1       -0.0822
     21 C         139.7921  140.6890  161.4992 C.ar    1  UNL1        0.0015
     22 C         138.5541  139.9068  161.8239 C.ar    1  UNL1        0.0009
     23 C         138.5477  138.9626  162.9894 C.ar    1  UNL1        0.0114
     24 C         139.7794  138.8006  163.8302 C.ar    1  UNL1        0.0577
     25 CL        139.7730  137.8564  164.9957 Cl      1  UNL1       -0.0822
     26 C         141.0173  139.5829  163.5054 C.ar    1  UNL1        0.0114
     27 C         141.0237  140.5271  162.3399 C.ar    1  UNL1        0.0009
     28 N         140.5971  140.0820  156.1857 N.am    1  UNL1       -0.3000
     29 C         139.4486  139.1217  156.0931 C.2     1  UNL1        0.2467
     30 O         138.0402  139.6226  156.2176 O.2     1  UNL1       -0.2726
     31 H         141.5215  139.7533  156.1039 H       1  UNL1        0.1498
     32 C         139.7085  137.6604  155.8759 C.3     1  UNL1        0.1563
     33 O         138.3046  137.1741  155.6698 O.3     1  UNL1       -0.3781
     34 C         140.4559  136.3680  155.7303 C.3     1  UNL1        0.0387
     35 C         141.2026  137.6394  156.0065 C.3     1  UNL1        0.0387
     36 H         137.6902  137.9216  155.7377 H       1  UNL1        0.2109
@<TRIPOS>BOND
     1     1     2    1
     2     2     3    1
     3     2     4    1
     4     4     5    1
     5     5    28    1
     6    28    29   am
     7    29    30    2
     8    29    32    1
     9    32    33    1
    10    32    34    1
    11    34    35    1
    12     5     6    1
    13     6     7   ar
    14     7     8   ar
    15     8    21    1
    16    21    22   ar
    17    22    23   ar
    18    23    24   ar
    19    24    25    1
    20    24    26   ar
    21    26    27   ar
    22     8     9   ar
    23     9    13    1
    24    13    14   ar
    25    14    15   ar
    26    15    16   ar
    27    16    17    1
    28    16    18   ar
    29    18    19   ar
    30    19    20    1
    31     9    10   ar
    32    10    11   ar
    33    11    12    1
    34    12     2    1
    35    35    32    1
    36    11     6   ar
    37    27    21   ar
    38    19    13   ar
    39    28    31    1
    40    33    36    1
@<TRIPOS>MOLECULE
*****
 36 40 0 0 0
SMALL
GASTEIGER

@<TRIPOS>ATOM
      1 C         137.2758  139.9130  154.2616 C.3     1  UNL1        0.0437
      2 C         138.2963  138.9993  154.8731 C.3     1  UNL1        0.1368
      3 C         138.2606  138.4526  153.4767 C.3     1  UNL1        0.0437
      4 C         139.3044  137.8958  154.9996 C.3     1  UNL1        0.0643
      5 C         139.9937  137.6563  156.3101 C.3     1  UNL1        0.1021
      6 C         139.6750  138.5203  157.4941 C.ar    1  UNL1        0.0488
      7 C         140.3644  138.2808  158.8046 C.ar    1  UNL1        0.0034
      8 C         140.0457  139.1448  159.9886 C.ar    1  UNL1        0.0177
      9 C         139.0376  140.2484  159.8621 C.ar    1  UNL1        0.0851
     10 N         138.3482  140.4879  158.5516 N.ar    1  UNL1       -0.2119
     11 C         138.6670  139.6238  157.3676 C.ar    1  UNL1        0.2219
     12 O         137.9776  139.8633  156.0571 O.3     1  UNL1       -0.4676
     13 C         138.7189  141.1124  161.0461 C.ar    1  UNL1        0.0284
     14 C         137.6552  140.6921  162.0167 C.ar    1  UNL1        0.0032
     15 C         137.3365  141.5561  163.2008 C.ar    1  UNL1        0.0115
     16 C         138.0815  142.8404  163.4142 C.ar    1  UNL1        0.0585
     17 CL        137.7628  143.7044  164.5982 Cl      1  UNL1       -0.0822
     18 C         139.1451  143.2607  162.4436 C.ar    1  UNL1        0.0228
     19 C         139.4638  142.3967  161.2596 C.ar    1  UNL1        0.0599
     20 CL        140.5274  142.8170  160.2890 Cl      1  UNL1       -0.0822
     21 C         140.7350  138.9053  161.2991 C.ar    1  UNL1        0.0015
     22 C         141.9519  139.7033  161.6633 C.ar    1  UNL1        0.0009
     23 C         142.6412  139.4638  162.9738 C.ar    1  UNL1        0.0114
     24 C         142.1137  138.4263  163.9201 C.ar    1  UNL1        0.0577
     25 CL        142.8031  138.1868  165.2306 Cl      1  UNL1       -0.0822
     26 C         140.8970  137.6283  163.5559 C.ar    1  UNL1        0.0114
     27 C         140.2076  137.8678  162.2454 C.ar    1  UNL1        0.0009
     28 N         141.0018  136.5527  156.4366 N.am    1  UNL1       -0.3000
     29 C         142.3946  136.7457  155.9142 C.2     1  UNL1        0.2467
     30 O         142.7793  138.0422  155.2653 O.2     1  UNL1       -0.2726
     31 H         140.7493  135.7018  156.8625 H       1  UNL1        0.1498
     32 C         143.4027  135.6421  156.0407 C.3     1  UNL1        0.1563
     33 O         144.6611  136.4041  155.7478 O.3     1  UNL1       -0.3781
     34 C         143.9738  134.2740  156.2689 C.3     1  UNL1        0.0387
     35 C         142.4943  134.4969  156.3775 C.3     1  UNL1        0.0387
     36 H         144.4434  137.3335  155.5749 H       1  UNL1        0.2109
@<TRIPOS>BOND
     1     1     2    1
     2     2     3    1
     3     2     4    1
     4     4     5    1
     5     5    28    1
     6    28    29   am
     7    29    30    2
     8    29    32    1
     9    32    33    1
    10    32    34    1
    11    34    35    1
    12     5     6    1
    13     6     7   ar
    14     7     8   ar
    15     8    21    1
    16    21    22   ar
    17    22    23   ar
    18    23    24   ar
    19    24    25    1
    20    24    26   ar
    21    26    27   ar
    22     8     9   ar
    23     9    13    1
    24    13    14   ar
    25    14    15   ar
    26    15    16   ar
    27    16    17    1
    28    16    18   ar
    29    18    19   ar
    30    19    20    1
    31     9    10   ar
    32    10    11   ar
    33    11    12    1
    34    12     2    1
    35    35    32    1
    36    11     6   ar
    37    27    21   ar
    38    19    13   ar
    39    28    31    1
    40    33    36    1
@<TRIPOS>MOLECULE
*****
 36 40 0 0 0
SMALL
GASTEIGER

@<TRIPOS>ATOM
      1 C         145.9286  142.0368  156.6371 C.3     1  UNL1        0.0437
      2 C         144.9009  140.9491  156.7411 C.3     1  UNL1        0.1368
      3 C         145.2659  140.8249  155.2914 C.3     1  UNL1        0.0437
      4 C         143.9999  139.8183  156.3416 C.3     1  UNL1        0.0643
      5 C         143.0909  139.1895  157.3557 C.3     1  UNL1        0.1021
      6 C         143.0828  139.6914  158.7691 C.ar    1  UNL1        0.0488
      7 C         142.1738  139.0625  159.7831 C.ar    1  UNL1        0.0034
      8 C         142.1658  139.5645  161.1966 C.ar    1  UNL1        0.0177
      9 C         143.0667  140.6953  161.5961 C.ar    1  UNL1        0.0851
     10 N         143.9757  141.3242  160.5821 N.ar    1  UNL1       -0.2119
     11 C         143.9838  140.8222  159.1686 C.ar    1  UNL1        0.2219
     12 O         144.8928  141.4510  158.1546 O.3     1  UNL1       -0.4676
     13 C         143.0586  141.1972  163.0096 C.ar    1  UNL1        0.0284
     14 C         142.1636  142.3374  163.3955 C.ar    1  UNL1        0.0032
     15 C         142.1556  142.8393  164.8091 C.ar    1  UNL1        0.0115
     16 C         143.0425  142.2011  165.8367 C.ar    1  UNL1        0.0585
     17 CL        143.0344  142.7030  167.2501 Cl      1  UNL1       -0.0822
     18 C         143.9375  141.0609  165.4507 C.ar    1  UNL1        0.0228
     19 C         143.9456  140.5590  164.0373 C.ar    1  UNL1        0.0599
     20 CL        144.8406  139.4188  163.6514 Cl      1  UNL1       -0.0822
     21 C         141.2567  138.9356  162.2106 C.ar    1  UNL1        0.0015
     22 C         139.9015  139.5240  162.4701 C.ar    1  UNL1        0.0009
     23 C         138.9925  138.8952  163.4842 C.ar    1  UNL1        0.0114
     24 C         139.4387  137.6779  164.2387 C.ar    1  UNL1        0.0577
     25 CL        138.5297  137.0490  165.2527 Cl      1  UNL1       -0.0822
     26 C         140.7938  137.0895  163.9792 C.ar    1  UNL1        0.0114
     27 C         141.7029  137.7184  162.9651 C.ar    1  UNL1        0.0009
     28 N         142.1900  138.0586  156.9561 N.am    1  UNL1       -0.3000
     29 C         142.7629  136.8421  156.2916 C.2     1  UNL1        0.2467
     30 O         144.2368  136.7563  156.0265 O.2     1  UNL1       -0.2726
     31 H         141.2226  138.1149  157.1301 H       1  UNL1        0.1498
     32 C         141.8619  135.7112  155.8921 C.3     1  UNL1        0.1563
     33 O         140.5333  136.2853  156.2860 O.3     1  UNL1       -0.3781
     34 C         141.4224  134.3811  155.3558 C.3     1  UNL1        0.0387
     35 C         142.8778  134.7446  155.3595 C.3     1  UNL1        0.0387
     36 H         140.6619  137.1707  156.6605 H       1  UNL1        0.2109
@<TRIPOS>BOND
     1     1     2    1
     2     2     3    1
     3     2     4    1
     4     4     5    1
     5     5    28    1
     6    28    29   am
     7    29    30    2
     8    29    32    1
     9    32    33    1
    10    32    34    1
    11    34    35    1
    12     5     6    1
    13     6     7   ar
    14     7     8   ar
    15     8    21    1
    16    21    22   ar
    17    22    23   ar
    18    23    24   ar
    19    24    25    1
    20    24    26   ar
    21    26    27   ar
    22     8     9   ar
    23     9    13    1
    24    13    14   ar
    25    14    15   ar
    26    15    16   ar
    27    16    17    1
    28    16    18   ar
    29    18    19   ar
    30    19    20    1
    31     9    10   ar
    32    10    11   ar
    33    11    12    1
    34    12     2    1
    35    35    32    1
    36    11     6   ar
    37    27    21   ar
    38    19    13   ar
    39    28    31    1
    40    33    36    1
@<TRIPOS>MOLECULE
*****
 36 40 0 0 0
SMALL
GASTEIGER

@<TRIPOS>ATOM
      1 C         142.1327  144.9579  155.3928 C.3     1  UNL1        0.0437
      2 C         142.0721  143.4932  155.7105 C.3     1  UNL1        0.1368
      3 C         142.5832  143.4332  154.3015 C.3     1  UNL1        0.0437
      4 C         142.1890  142.0076  155.5389 C.3     1  UNL1        0.0643
      5 C         141.8159  141.0908  156.6659 C.3     1  UNL1        0.1021
      6 C         141.3258  141.6595  157.9645 C.ar    1  UNL1        0.0488
      7 C         140.9527  140.7426  159.0915 C.ar    1  UNL1        0.0034
      8 C         140.4626  141.3113  160.3902 C.ar    1  UNL1        0.0177
      9 C         140.3457  142.7969  160.5618 C.ar    1  UNL1        0.0851
     10 N         140.7189  143.7137  159.4348 N.ar    1  UNL1       -0.2119
     11 C         141.2089  143.1450  158.1361 C.ar    1  UNL1        0.2219
     12 O         141.5821  144.0618  157.0091 O.3     1  UNL1       -0.4676
     13 C         139.8557  143.3656  161.8604 C.ar    1  UNL1        0.0284
     14 C         138.3831  143.4990  162.1126 C.ar    1  UNL1        0.0032
     15 C         137.8931  144.0677  163.4113 C.ar    1  UNL1        0.0115
     16 C         138.8756  144.5029  164.4577 C.ar    1  UNL1        0.0585
     17 CL        138.3856  145.0716  165.7563 Cl      1  UNL1       -0.0822
     18 C         140.3483  144.3695  164.2055 C.ar    1  UNL1        0.0228
     19 C         140.8383  143.8009  162.9069 C.ar    1  UNL1        0.0599
     20 CL        142.3109  143.6675  162.6547 Cl      1  UNL1       -0.0822
     21 C         140.0895  140.3944  161.5172 C.ar    1  UNL1        0.0015
     22 C         138.7077  139.8147  161.5863 C.ar    1  UNL1        0.0009
     23 C         138.3346  138.8979  162.7133 C.ar    1  UNL1        0.0114
     24 C         139.3432  138.5607  163.7712 C.ar    1  UNL1        0.0577
     25 CL        138.9701  137.6439  164.8982 Cl      1  UNL1       -0.0822
     26 C         140.7249  139.1404  163.7020 C.ar    1  UNL1        0.0114
     27 C         141.0981  140.0573  162.5750 C.ar    1  UNL1        0.0009
     28 N         141.9328  139.6052  156.4943 N.am    1  UNL1       -0.3000
     29 C         143.2775  138.9449  156.5702 C.2     1  UNL1        0.2467
     30 O         144.5053  139.7702  156.8179 O.2     1  UNL1       -0.2726
     31 H         141.1269  139.0635  156.3318 H       1  UNL1        0.1498
     32 C         143.3944  137.4593  156.3986 C.3     1  UNL1        0.1563
     33 O         144.7400  137.3784  155.7407 O.3     1  UNL1       -0.3781
     34 C         143.0440  136.0019  156.4554 C.3     1  UNL1        0.0387
     35 C         142.0894  137.0246  156.9969 C.3     1  UNL1        0.0387
     36 H         145.1022  138.2719  155.6345 H       1  UNL1        0.2109
@<TRIPOS>BOND
     1     1     2    1
     2     2     3    1
     3     2     4    1
     4     4     5    1
     5     5    28    1
     6    28    29   am
     7    29    30    2
     8    29    32    1
     9    32    33    1
    10    32    34    1
    11    34    35    1
    12     5     6    1
    13     6     7   ar
    14     7     8   ar
    15     8    21    1
    16    21    22   ar
    17    22    23   ar
    18    23    24   ar
    19    24    25    1
    20    24    26   ar
    21    26    27   ar
    22     8     9   ar
    23     9    13    1
    24    13    14   ar
    25    14    15   ar
    26    15    16   ar
    27    16    17    1
    28    16    18   ar
    29    18    19   ar
    30    19    20    1
    31     9    10   ar
    32    10    11   ar
    33    11    12    1
    34    12     2    1
    35    35    32    1
    36    11     6   ar
    37    27    21   ar
    38    19    13   ar
    39    28    31    1
    40    33    36    1
@<TRIPOS>MOLECULE
*****
 36 40 0 0 0
SMALL
GASTEIGER

@<TRIPOS>ATOM
      1 C         141.1152  145.7022  155.0431 C.3     1  UNL1        0.0437
      2 C         140.0037  144.8392  155.5625 C.3     1  UNL1        0.1368
      3 C         139.5112  145.0867  154.1674 C.3     1  UNL1        0.0437
      4 C         138.7211  144.0622  155.5974 C.3     1  UNL1        0.0643
      5 C         138.3170  143.3374  156.8470 C.3     1  UNL1        0.1021
      6 C         139.1955  143.3896  158.0617 C.ar    1  UNL1        0.0488
      7 C         138.7915  142.6648  159.3112 C.ar    1  UNL1        0.0034
      8 C         139.6700  142.7171  160.5259 C.ar    1  UNL1        0.0177
      9 C         140.9526  143.4941  160.4911 C.ar    1  UNL1        0.0851
     10 N         141.3567  144.2189  159.2415 N.ar    1  UNL1       -0.2119
     11 C         140.4781  144.1666  158.0268 C.ar    1  UNL1        0.2219
     12 O         140.8822  144.8914  156.7772 O.3     1  UNL1       -0.4676
     13 C         141.8311  143.5463  161.7057 C.ar    1  UNL1        0.0284
     14 C         142.8783  142.4939  161.9197 C.ar    1  UNL1        0.0032
     15 C         143.7569  142.5461  163.1345 C.ar    1  UNL1        0.0115
     16 C         143.5881  143.6507  164.1351 C.ar    1  UNL1        0.0585
     17 CL        144.4666  143.7029  165.3498 Cl      1  UNL1       -0.0822
     18 C         142.5409  144.7031  163.9211 C.ar    1  UNL1        0.0228
     19 C         141.6624  144.6509  162.7065 C.ar    1  UNL1        0.0599
     20 CL        140.6152  145.7033  162.4924 Cl      1  UNL1       -0.0822
     21 C         139.2659  141.9923  161.7755 C.ar    1  UNL1        0.0015
     22 C         138.3949  142.6734  162.7892 C.ar    1  UNL1        0.0009
     23 C         137.9908  141.9486  164.0388 C.ar    1  UNL1        0.0114
     24 C         138.4578  140.5427  164.2746 C.ar    1  UNL1        0.0577
     25 CL        138.0537  139.8179  165.5242 Cl      1  UNL1       -0.0822
     26 C         139.3287  139.8617  163.2609 C.ar    1  UNL1        0.0114
     27 C         139.7328  140.5865  162.0114 C.ar    1  UNL1        0.0009
     28 N         137.0344  142.5604  156.8819 N.am    1  UNL1       -0.3000
     29 C         136.7904  141.4703  155.8808 C.2     1  UNL1        0.2467
     30 O         137.8290  141.1573  154.8448 O.2     1  UNL1       -0.2726
     31 H         136.3527  142.7659  157.5618 H       1  UNL1        0.1498
     32 C         135.5078  140.6933  155.9156 C.3     1  UNL1        0.1563
     33 O         135.5392  140.2024  157.3327 O.3     1  UNL1       -0.3781
     34 C         134.2143  140.0868  155.4584 C.3     1  UNL1        0.0387
     35 C         135.0310  140.9145  154.5107 C.3     1  UNL1        0.0387
     36 H         136.3434  140.5248  157.7688 H       1  UNL1        0.2109
@<TRIPOS>BOND
     1     1     2    1
     2     2     3    1
     3     2     4    1
     4     4     5    1
     5     5    28    1
     6    28    29   am
     7    29    30    2
     8    29    32    1
     9    32    33    1
    10    32    34    1
    11    34    35    1
    12     5     6    1
    13     6     7   ar
    14     7     8   ar
    15     8    21    1
    16    21    22   ar
    17    22    23   ar
    18    23    24   ar
    19    24    25    1
    20    24    26   ar
    21    26    27   ar
    22     8     9   ar
    23     9    13    1
    24    13    14   ar
    25    14    15   ar
    26    15    16   ar
    27    16    17    1
    28    16    18   ar
    29    18    19   ar
    30    19    20    1
    31     9    10   ar
    32    10    11   ar
    33    11    12    1
    34    12     2    1
    35    35    32    1
    36    11     6   ar
    37    27    21   ar
    38    19    13   ar
    39    28    31    1
    40    33    36    1
@<TRIPOS>MOLECULE
*****
 36 40 0 0 0
SMALL
GASTEIGER

@<TRIPOS>ATOM
      1 C         145.8408  140.4192  155.5762 C.3     1  UNL1        0.0437
      2 C         144.9272  141.5562  155.9264 C.3     1  UNL1        0.1368
      3 C         145.2282  141.8948  154.4964 C.3     1  UNL1        0.0437
      4 C         144.1182  142.8108  155.7800 C.3     1  UNL1        0.0643
      5 C         143.3255  143.3319  156.9419 C.3     1  UNL1        0.1021
      6 C         143.3418  142.5985  158.2502 C.ar    1  UNL1        0.0488
      7 C         142.5491  143.1197  159.4121 C.ar    1  UNL1        0.0034
      8 C         142.5654  142.3862  160.7205 C.ar    1  UNL1        0.0177
      9 C         143.3745  141.1316  160.8669 C.ar    1  UNL1        0.0851
     10 N         144.1672  140.6104  159.7050 N.ar    1  UNL1       -0.2119
     11 C         144.1509  141.3439  158.3966 C.ar    1  UNL1        0.2219
     12 O         144.9436  140.8228  157.2347 O.3     1  UNL1       -0.4676
     13 C         143.3908  140.3982  162.1753 C.ar    1  UNL1        0.0284
     14 C         142.3366  139.3738  162.4740 C.ar    1  UNL1        0.0032
     15 C         142.3530  138.6403  163.7825 C.ar    1  UNL1        0.0115
     16 C         143.4235  138.9313  164.7920 C.ar    1  UNL1        0.0585
     17 CL        143.4398  138.1979  166.1004 Cl      1  UNL1       -0.0822
     18 C         144.4777  139.9558  164.4933 C.ar    1  UNL1        0.0228
     19 C         144.4614  140.6892  163.1849 C.ar    1  UNL1        0.0599
     20 CL        145.5156  141.7136  162.8862 Cl      1  UNL1       -0.0822
     21 C         141.7727  142.9074  161.8824 C.ar    1  UNL1        0.0015
     22 C         140.3457  142.4835  162.0672 C.ar    1  UNL1        0.0009
     23 C         139.5530  143.0046  163.2291 C.ar    1  UNL1        0.0114
     24 C         140.1873  143.9497  164.2062 C.ar    1  UNL1        0.0577
     25 CL        139.3946  144.4709  165.3681 Cl      1  UNL1       -0.0822
     26 C         141.6143  144.3735  164.0213 C.ar    1  UNL1        0.0114
     27 C         142.4070  143.8524  162.8594 C.ar    1  UNL1        0.0009
     28 N         142.5165  144.5866  156.7954 N.am    1  UNL1       -0.3000
     29 C         141.1259  144.5214  156.2367 C.2     1  UNL1        0.2467
     30 O         140.5444  143.2016  155.8245 O.2     1  UNL1       -0.2726
     31 H         142.8981  145.4528  157.0660 H       1  UNL1        0.1498
     32 C         140.3169  145.7760  156.0902 C.3     1  UNL1        0.1563
     33 O         140.7274  146.4978  157.3394 O.3     1  UNL1       -0.3781
     34 C         139.3653  146.7799  155.5100 C.3     1  UNL1        0.0387
     35 C         139.6255  145.4898  154.7902 C.3     1  UNL1        0.0387
     36 H         141.3608  145.9543  157.8336 H       1  UNL1        0.2109
@<TRIPOS>BOND
     1     1     2    1
     2     2     3    1
     3     2     4    1
     4     4     5    1
     5     5    28    1
     6    28    29   am
     7    29    30    2
     8    29    32    1
     9    32    33    1
    10    32    34    1
    11    34    35    1
    12     5     6    1
    13     6     7   ar
    14     7     8   ar
    15     8    21    1
    16    21    22   ar
    17    22    23   ar
    18    23    24   ar
    19    24    25    1
    20    24    26   ar
    21    26    27   ar
    22     8     9   ar
    23     9    13    1
    24    13    14   ar
    25    14    15   ar
    26    15    16   ar
    27    16    17    1
    28    16    18   ar
    29    18    19   ar
    30    19    20    1
    31     9    10   ar
    32    10    11   ar
    33    11    12    1
    34    12     2    1
    35    35    32    1
    36    11     6   ar
    37    27    21   ar
    38    19    13   ar
    39    28    31    1
    40    33    36    1
