@<TRIPOS>MOLECULE
*****
 36 41 0 0 0
SMALL
GASTEIGER

@<TRIPOS>ATOM
      1 C         139.2666  144.4021  162.8840 C.ar    1  UNL1        0.0899
      2 C         138.4937  144.3637  164.1690 C.ar    1  UNL1        0.1063
      3 N         137.9916  143.0551  164.7033 N.ar    1  UNL1       -0.2291
      4 C         138.2623  141.7850  163.9527 C.ar    1  UNL1        0.1299
      5 C         139.0352  141.8234  162.6677 C.ar    1  UNL1        0.0503
      6 C         139.5373  143.1319  162.1334 C.ar    1  UNL1        0.0895
      7 N         140.2655  142.8599  160.8505 N.2     1  UNL1       -0.2490
      8 C         140.2134  141.3833  160.5920 C.2     1  UNL1        0.0634
      9 C         140.7602  140.5393  159.4790 C.3     1  UNL1        0.0721
     10 C         140.5465  139.0546  159.4892 C.2     1  UNL1       -0.0132
     11 C         139.7861  138.4140  160.6123 C.2     1  UNL1       -0.0037
     12 C         139.2393  139.2580  161.7252 C.2     1  UNL1        0.0010
     13 C         139.4530  140.7426  161.7151 C.2     1  UNL1        0.0180
     14 C         141.0932  138.2106  158.3762 C.ar    1  UNL1        0.0349
     15 C         140.1827  137.7210  157.2893 C.ar    1  UNL1        0.1030
     16 N         140.7293  136.8770  156.1764 N.ar    1  UNL1       -0.2125
     17 C         142.1867  136.5225  156.1502 C.ar    1  UNL1        0.2137
     18 N         142.7333  135.6784  155.0373 N.pl3   1  UNL1       -0.3274
     19 N         143.0972  137.0120  157.2371 N.ar    1  UNL1       -0.2125
     20 C         142.5505  137.8561  158.3501 C.ar    1  UNL1        0.1030
     21 H         142.1357  135.3571  154.3240 H       1  UNL1        0.1452
     22 H         143.6898  135.4457  155.0201 H       1  UNL1        0.1452
     23 N         141.0385  146.3021  162.8860 N.am    1  UNL1       -0.3252
     24 C         139.7687  145.7106  162.3497 C.2     1  UNL1        0.2457
     25 O         139.0010  146.4278  161.2790 O.2     1  UNL1       -0.2703
     26 H         141.3681  147.1609  162.5353 H       1  UNL1        0.1453
     27 H         141.5424  145.8314  163.5888 H       1  UNL1        0.1453
     28 N         137.7601  140.4763  164.4871 N.pl3   1  UNL1       -0.3197
     29 H         136.8595  140.1595  164.2467 H       1  UNL1        0.1481
     30 C         138.6302  139.6505  165.3876 C.3     1  UNL1        0.0702
     31 C         138.0160  138.6076  166.2736 C.3     1  UNL1        0.0179
     32 C         137.2708  138.2387  167.5221 C.3     1  UNL1        0.0017
     33 C         137.6974  137.1700  166.5599 C.3     1  UNL1        0.0017
     34 C         140.1142  139.8676  165.4022 C.3     1  UNL1        0.0179
     35 C         141.4899  139.4691  164.9561 C.3     1  UNL1        0.0017
     36 C         141.3093  140.6421  165.8734 C.3     1  UNL1        0.0017
@<TRIPOS>BOND
     1    23    24   am
     2    24    25    2
     3    24     1    1
     4     1     2   ar
     5     2     3   ar
     6     3     4   ar
     7     4    28    1
     8    28    30    1
     9    30    31    1
    10    31    32    1
    11    32    33    1
    12    30    34    1
    13    34    35    1
    14    35    36    1
    15     4     5   ar
    16     5     6   ar
    17     6     7    1
    18     7     8    2
    19     8     9    1
    20     9    10    1
    21    10    14    1
    22    14    15   ar
    23    15    16   ar
    24    16    17   ar
    25    17    18    1
    26    17    19   ar
    27    19    20   ar
    28    10    11    2
    29    11    12    1
    30    12    13    2
    31     6     1   ar
    32    13     8    1
    33    33    31    1
    34    36    34    1
    35    13     5    1
    36    20    14   ar
    37    23    26    1
    38    23    27    1
    39    28    29    1
    40    18    21    1
    41    18    22    1
@<TRIPOS>MOLECULE
*****
 36 41 0 0 0
SMALL
GASTEIGER

@<TRIPOS>ATOM
      1 C         139.3109  144.3834  162.8868 C.ar    1  UNL1        0.0899
      2 C         138.5346  144.3423  164.1696 C.ar    1  UNL1        0.1063
      3 N         138.0217  143.0341  164.6943 N.ar    1  UNL1       -0.2291
      4 C         138.2849  141.7668  163.9361 C.ar    1  UNL1        0.1299
      5 C         139.0612  141.8079  162.6533 C.ar    1  UNL1        0.0503
      6 C         139.5742  143.1161  162.1286 C.ar    1  UNL1        0.0895
      7 N         140.3035  142.8471  160.8458 N.2     1  UNL1       -0.2490
      8 C         140.2412  141.3725  160.5776 C.2     1  UNL1        0.0634
      9 C         140.7845  140.5317  159.4605 C.3     1  UNL1        0.0721
     10 C         140.5599  139.0487  159.4605 C.2     1  UNL1       -0.0132
     11 C         139.7921  138.4064  160.5777 C.2     1  UNL1       -0.0037
     12 C         139.2489  139.2472  161.6948 C.2     1  UNL1        0.0010
     13 C         139.4734  140.7303  161.6947 C.2     1  UNL1        0.0180
     14 C         141.1032  138.2078  158.3434 C.ar    1  UNL1        0.0349
     15 C         140.1944  137.7430  157.2443 C.ar    1  UNL1        0.1030
     16 N         140.7376  136.9021  156.1273 N.ar    1  UNL1       -0.2125
     17 C         142.1896  136.5261  156.1092 C.ar    1  UNL1        0.2137
     18 N         142.7328  135.6853  154.9922 N.pl3   1  UNL1       -0.3274
     19 N         143.0984  136.9909  157.2083 N.ar    1  UNL1       -0.2125
     20 C         142.5551  137.8318  158.3255 C.ar    1  UNL1        0.1030
     21 H         142.1363  135.3802  154.2708 H       1  UNL1        0.1452
     22 H         143.6858  135.4385  154.9803 H       1  UNL1        0.1452
     23 N         141.0915  146.2751  162.9122 N.am    1  UNL1       -0.3252
     24 C         139.8239  145.6916  162.3621 C.2     1  UNL1        0.2457
     25 O         139.0692  146.4165  161.2873 O.2     1  UNL1       -0.2703
     26 H         141.4282  147.1337  162.5678 H       1  UNL1        0.1453
     27 H         141.5868  145.7994  163.6176 H       1  UNL1        0.1453
     28 N         137.7719  140.4585  164.4609 N.pl3   1  UNL1       -0.3197
     29 H         136.8638  140.1572  164.2290 H       1  UNL1        0.1481
     30 C         138.6426  139.6094  165.3389 C.3     1  UNL1        0.0702
     31 C         140.1329  139.7747  165.3020 C.3     1  UNL1        0.0179
     32 C         141.3598  140.5740  165.6278 C.3     1  UNL1        0.0017
     33 C         141.4876  139.2619  164.9123 C.3     1  UNL1        0.0017
     34 C         138.0229  138.5951  166.2538 C.3     1  UNL1        0.0179
     35 C         137.2661  138.2662  167.5065 C.3     1  UNL1        0.0017
     36 C         137.7064  137.1669  166.5858 C.3     1  UNL1        0.0017
@<TRIPOS>BOND
     1    23    24   am
     2    24    25    2
     3    24     1    1
     4     1     2   ar
     5     2     3   ar
     6     3     4   ar
     7     4    28    1
     8    28    30    1
     9    30    31    1
    10    31    32    1
    11    32    33    1
    12    30    34    1
    13    34    35    1
    14    35    36    1
    15     4     5   ar
    16     5     6   ar
    17     6     7    1
    18     7     8    2
    19     8     9    1
    20     9    10    1
    21    10    14    1
    22    14    15   ar
    23    15    16   ar
    24    16    17   ar
    25    17    18    1
    26    17    19   ar
    27    19    20   ar
    28    10    11    2
    29    11    12    1
    30    12    13    2
    31     6     1   ar
    32    13     8    1
    33    33    31    1
    34    36    34    1
    35    13     5    1
    36    20    14   ar
    37    23    26    1
    38    23    27    1
    39    28    29    1
    40    18    21    1
    41    18    22    1
@<TRIPOS>MOLECULE
*****
 36 41 0 0 0
SMALL
GASTEIGER

@<TRIPOS>ATOM
      1 C         138.5707  138.9198  166.6593 C.ar    1  UNL1        0.0899
      2 C         138.9475  139.9404  167.6919 C.ar    1  UNL1        0.1063
      3 N         139.9487  141.0073  167.3615 N.ar    1  UNL1       -0.2291
      4 C         140.5731  141.0537  165.9983 C.ar    1  UNL1        0.1299
      5 C         140.1963  140.0331  164.9657 C.ar    1  UNL1        0.0503
      6 C         139.1951  138.9661  165.2962 C.ar    1  UNL1        0.0895
      7 N         139.0217  138.1014  164.0828 N.2     1  UNL1       -0.2490
      8 C         139.9157  138.6340  163.0025 C.2     1  UNL1        0.0634
      9 C         140.1625  138.1861  161.5924 C.3     1  UNL1        0.0721
     10 C         141.1352  138.9321  160.7279 C.2     1  UNL1       -0.0132
     11 C         141.8612  140.1259  161.2736 C.2     1  UNL1       -0.0037
     12 C         141.6144  140.5738  162.6837 C.2     1  UNL1        0.0010
     13 C         140.6416  139.8278  163.5481 C.2     1  UNL1        0.0180
     14 C         141.3820  138.4842  159.3177 C.ar    1  UNL1        0.0349
     15 C         140.2467  138.4280  158.3391 C.ar    1  UNL1        0.1030
     16 N         140.4934  137.9802  156.9290 N.ar    1  UNL1       -0.2125
     17 C         141.8756  137.5885  156.4974 C.ar    1  UNL1        0.2137
     18 N         142.1224  137.1406  155.0873 N.pl3   1  UNL1       -0.3274
     19 N         143.0110  137.6446  157.4761 N.ar    1  UNL1       -0.2125
     20 C         142.7642  138.0925  158.8863 C.ar    1  UNL1        0.1030
     21 H         141.3772  137.1038  154.4450 H       1  UNL1        0.1452
     22 H         143.0296  136.8835  154.8041 H       1  UNL1        0.1452
     23 N         137.5711  136.5609  166.2276 N.am    1  UNL1       -0.3252
     24 C         137.5696  137.8528  166.9898 C.2     1  UNL1        0.2457
     25 O         136.5668  138.0777  168.0825 O.2     1  UNL1       -0.2703
     26 H         136.9140  135.8607  166.4445 H       1  UNL1        0.1453
     27 H         138.2292  136.4133  165.5105 H       1  UNL1        0.1453
     28 N         141.5743  142.1207  165.6679 N.pl3   1  UNL1       -0.3197
     29 H         142.5131  142.0181  165.9462 H       1  UNL1        0.1481
     30 C         141.1451  143.3441  164.9135 C.3     1  UNL1        0.0702
     31 C         142.1427  144.1088  164.0949 C.3     1  UNL1        0.0179
     32 C         143.3778  144.9560  164.0110 C.3     1  UNL1        0.0017
     33 C         142.6356  144.5861  162.7611 C.3     1  UNL1        0.0017
     34 C         139.7185  143.8028  164.9776 C.3     1  UNL1        0.0179
     35 C         138.7072  144.8586  165.3134 C.3     1  UNL1        0.0017
     36 C         138.2585  143.5416  164.7530 C.3     1  UNL1        0.0017
@<TRIPOS>BOND
     1    23    24   am
     2    24    25    2
     3    24     1    1
     4     1     2   ar
     5     2     3   ar
     6     3     4   ar
     7     4    28    1
     8    28    30    1
     9    30    31    1
    10    31    32    1
    11    32    33    1
    12    30    34    1
    13    34    35    1
    14    35    36    1
    15     4     5   ar
    16     5     6   ar
    17     6     7    1
    18     7     8    2
    19     8     9    1
    20     9    10    1
    21    10    14    1
    22    14    15   ar
    23    15    16   ar
    24    16    17   ar
    25    17    18    1
    26    17    19   ar
    27    19    20   ar
    28    10    11    2
    29    11    12    1
    30    12    13    2
    31     6     1   ar
    32    13     8    1
    33    33    31    1
    34    36    34    1
    35    13     5    1
    36    20    14   ar
    37    23    26    1
    38    23    27    1
    39    28    29    1
    40    18    21    1
    41    18    22    1
@<TRIPOS>MOLECULE
*****
 36 41 0 0 0
SMALL
GASTEIGER

@<TRIPOS>ATOM
      1 C         138.4838  138.9018  166.9323 C.ar    1  UNL1        0.0899
      2 C         138.8610  139.9150  167.9721 C.ar    1  UNL1        0.1063
      3 N         139.8663  140.9808  167.6508 N.ar    1  UNL1       -0.2291
      4 C         140.4944  141.0335  166.2896 C.ar    1  UNL1        0.1299
      5 C         140.1172  140.0204  165.2498 C.ar    1  UNL1        0.0503
      6 C         139.1119  138.9545  165.5712 C.ar    1  UNL1        0.0895
      7 N         138.9390  138.0978  164.3521 N.2     1  UNL1       -0.2490
      8 C         139.8375  138.6341  163.2774 C.2     1  UNL1        0.0634
      9 C         140.0866  138.1940  161.8652 C.3     1  UNL1        0.0721
     10 C         141.0639  138.9422  161.0079 C.2     1  UNL1       -0.0132
     11 C         141.7921  140.1304  161.5627 C.2     1  UNL1       -0.0037
     12 C         141.5430  140.5705  162.9749 C.2     1  UNL1        0.0010
     13 C         140.5657  139.8223  163.8322 C.2     1  UNL1        0.0180
     14 C         141.3131  138.5021  159.5957 C.ar    1  UNL1        0.0349
     15 C         142.6961  138.1133  159.1642 C.ar    1  UNL1        0.1030
     16 N         142.9453  137.6733  157.7521 N.ar    1  UNL1       -0.2125
     17 C         141.8115  137.6220  156.7713 C.ar    1  UNL1        0.2137
     18 N         142.0607  137.1819  155.3592 N.pl3   1  UNL1       -0.3274
     19 N         140.4285  138.0107  157.2027 N.ar    1  UNL1       -0.2125
     20 C         140.1793  138.4508  158.6150 C.ar    1  UNL1        0.1030
     21 H         142.9684  136.9267  155.0760 H       1  UNL1        0.1452
     22 H         141.3166  137.1482  154.7155 H       1  UNL1        0.1452
     23 N         137.3989  136.6003  166.4072 N.am    1  UNL1       -0.3252
     24 C         137.4784  137.8360  167.2537 C.2     1  UNL1        0.2457
     25 O         136.5525  138.0059  168.4216 O.2     1  UNL1       -0.2703
     26 H         136.7390  135.9008  166.6182 H       1  UNL1        0.1453
     27 H         138.0065  136.4888  165.6407 H       1  UNL1        0.1453
     28 N         141.4998  142.0994  165.9683 N.pl3   1  UNL1       -0.3197
     29 H         142.4187  142.0300  166.3150 H       1  UNL1        0.1481
     30 C         141.1052  143.2710  165.1188 C.3     1  UNL1        0.0702
     31 C         139.6746  143.7203  165.0789 C.3     1  UNL1        0.0179
     32 C         138.2443  143.4697  164.7026 C.3     1  UNL1        0.0017
     33 C         138.6270  144.7489  165.3860 C.3     1  UNL1        0.0017
     34 C         142.1409  143.9933  164.3093 C.3     1  UNL1        0.0179
     35 C         142.6867  145.2685  163.7384 C.3     1  UNL1        0.0017
     36 C         143.3893  143.9691  163.4780 C.3     1  UNL1        0.0017
@<TRIPOS>BOND
     1    23    24   am
     2    24    25    2
     3    24     1    1
     4     1     2   ar
     5     2     3   ar
     6     3     4   ar
     7     4    28    1
     8    28    30    1
     9    30    31    1
    10    31    32    1
    11    32    33    1
    12    30    34    1
    13    34    35    1
    14    35    36    1
    15     4     5   ar
    16     5     6   ar
    17     6     7    1
    18     7     8    2
    19     8     9    1
    20     9    10    1
    21    10    14    1
    22    14    15   ar
    23    15    16   ar
    24    16    17   ar
    25    17    18    1
    26    17    19   ar
    27    19    20   ar
    28    10    11    2
    29    11    12    1
    30    12    13    2
    31     6     1   ar
    32    13     8    1
    33    33    31    1
    34    36    34    1
    35    13     5    1
    36    20    14   ar
    37    23    26    1
    38    23    27    1
    39    28    29    1
    40    18    21    1
    41    18    22    1
@<TRIPOS>MOLECULE
*****
 36 41 0 0 0
SMALL
GASTEIGER

@<TRIPOS>ATOM
      1 C         142.3749  140.2569  166.5256 C.ar    1  UNL1        0.0899
      2 C         141.6726  141.4029  167.1915 C.ar    1  UNL1        0.1063
      3 N         141.0058  142.4587  166.3605 N.ar    1  UNL1       -0.2291
      4 C         141.0412  142.3685  164.8636 C.ar    1  UNL1        0.1299
      5 C         141.7436  141.2225  164.1977 C.ar    1  UNL1        0.0503
      6 C         142.4104  140.1667  165.0287 C.ar    1  UNL1        0.0895
      7 N         143.0216  139.1617  164.0979 N.2     1  UNL1       -0.2490
      8 C         142.7325  139.5963  162.6917 C.2     1  UNL1        0.0634
      9 C         143.0864  138.9969  161.3631 C.3     1  UNL1        0.0721
     10 C         142.6505  139.6711  160.0961 C.2     1  UNL1       -0.0132
     11 C         141.8606  140.9448  160.1577 C.2     1  UNL1       -0.0037
     12 C         141.5067  141.5443  161.4864 C.2     1  UNL1        0.0010
     13 C         141.9426  140.8700  162.7534 C.2     1  UNL1        0.0180
     14 C         143.0044  139.0717  158.7673 C.ar    1  UNL1        0.0349
     15 C         142.7016  137.6288  158.4909 C.ar    1  UNL1        0.1030
     16 N         143.0555  137.0293  157.1623 N.ar    1  UNL1       -0.2125
     17 C         143.7122  137.8728  156.1099 C.ar    1  UNL1        0.2137
     18 N         144.0661  137.2733  154.7813 N.pl3   1  UNL1       -0.3274
     19 N         144.0150  139.3157  156.3863 N.ar    1  UNL1       -0.2125
     20 C         143.6611  139.9151  157.7150 C.ar    1  UNL1        0.1030
     21 H         143.8674  136.3263  154.5999 H       1  UNL1        0.1452
     22 H         144.4971  137.8269  154.0906 H       1  UNL1        0.1452
     23 N         143.8794  138.1458  166.6974 N.am    1  UNL1       -0.3252
     24 C         143.0418  139.2011  167.3566 C.2     1  UNL1        0.2457
     25 O         142.8709  139.2006  168.8469 O.2     1  UNL1       -0.2703
     26 H         144.3171  137.4529  167.2429 H       1  UNL1        0.1453
     27 H         143.9915  138.1461  165.7193 H       1  UNL1        0.1453
     28 N         140.3743  143.4244  164.0326 N.pl3   1  UNL1       -0.3197
     29 H         139.3921  143.4889  164.0142 H       1  UNL1        0.1481
     30 C         141.2041  144.3820  163.2296 C.3     1  UNL1        0.0702
     31 C         142.6739  144.5097  163.5000 C.3     1  UNL1        0.0179
     32 C         143.8013  145.0806  164.3082 C.3     1  UNL1        0.0017
     33 C         144.0925  144.1601  163.1601 C.3     1  UNL1        0.0017
     34 C         140.5640  145.2117  162.1565 C.3     1  UNL1        0.0179
     35 C         140.3670  145.5291  160.7037 C.3     1  UNL1        0.0017
     36 C         139.6522  146.3315  161.7503 C.3     1  UNL1        0.0017
@<TRIPOS>BOND
     1    23    24   am
     2    24    25    2
     3    24     1    1
     4     1     2   ar
     5     2     3   ar
     6     3     4   ar
     7     4    28    1
     8    28    30    1
     9    30    31    1
    10    31    32    1
    11    32    33    1
    12    30    34    1
    13    34    35    1
    14    35    36    1
    15     4     5   ar
    16     5     6   ar
    17     6     7    1
    18     7     8    2
    19     8     9    1
    20     9    10    1
    21    10    14    1
    22    14    15   ar
    23    15    16   ar
    24    16    17   ar
    25    17    18    1
    26    17    19   ar
    27    19    20   ar
    28    10    11    2
    29    11    12    1
    30    12    13    2
    31     6     1   ar
    32    13     8    1
    33    33    31    1
    34    36    34    1
    35    13     5    1
    36    20    14   ar
    37    23    26    1
    38    23    27    1
    39    28    29    1
    40    18    21    1
    41    18    22    1
@<TRIPOS>MOLECULE
*****
 36 41 0 0 0
SMALL
GASTEIGER

@<TRIPOS>ATOM
      1 C         142.2849  140.3965  166.7702 C.ar    1  UNL1        0.0899
      2 C         141.9072  141.6944  167.4205 C.ar    1  UNL1        0.1063
      3 N         141.2706  142.7829  166.6081 N.ar    1  UNL1       -0.2291
      4 C         141.0117  142.5735  165.1455 C.ar    1  UNL1        0.1299
      5 C         141.3894  141.2756  164.4953 C.ar    1  UNL1        0.0503
      6 C         142.0260  140.1871  165.3076 C.ar    1  UNL1        0.0895
      7 N         142.2879  139.0231  164.3985 N.2     1  UNL1       -0.2490
      8 C         141.8132  139.3922  163.0243 C.2     1  UNL1        0.0634
      9 C         141.8148  138.6405  161.7263 C.3     1  UNL1        0.0721
     10 C         141.2611  139.2809  160.4881 C.2     1  UNL1       -0.0132
     11 C         140.7058  140.6731  160.5479 C.2     1  UNL1       -0.0037
     12 C         140.7042  141.4248  161.8459 C.2     1  UNL1        0.0010
     13 C         141.2578  140.7843  163.0841 C.2     1  UNL1        0.0180
     14 C         141.2627  138.5293  159.1900 C.ar    1  UNL1        0.0349
     15 C         139.9922  138.3835  158.4061 C.ar    1  UNL1        0.1030
     16 N         139.9938  137.6319  157.1081 N.ar    1  UNL1       -0.2125
     17 C         141.2659  137.0259  156.5938 C.ar    1  UNL1        0.2137
     18 N         141.2675  136.2743  155.2958 N.pl3   1  UNL1       -0.3274
     19 N         142.5365  137.1716  157.3777 N.ar    1  UNL1       -0.2125
     20 C         142.5349  137.9233  158.6758 C.ar    1  UNL1        0.1030
     21 H         140.4336  136.1786  154.7813 H       1  UNL1        0.1452
     22 H         142.1025  135.8766  154.9582 H       1  UNL1        0.1452
     23 N         143.6830  138.2106  166.9002 N.am    1  UNL1       -0.3252
     24 C         142.9215  139.3080  167.5826 C.2     1  UNL1        0.2457
     25 O         142.7966  139.3170  169.0774 O.2     1  UNL1       -0.2703
     26 H         144.1008  137.4962  167.4334 H       1  UNL1        0.1453
     27 H         143.7650  138.2047  165.9192 H       1  UNL1        0.1453
     28 N         140.3751  143.6621  164.3332 N.pl3   1  UNL1       -0.3197
     29 H         139.4103  143.8392  164.4176 H       1  UNL1        0.1481
     30 C         141.2084  144.4806  163.3921 C.3     1  UNL1        0.0702
     31 C         140.5543  145.2303  162.2696 C.3     1  UNL1        0.0179
     32 C         140.3899  145.4869  160.8009 C.3     1  UNL1        0.0017
     33 C         139.5856  146.2722  161.7941 C.3     1  UNL1        0.0017
     34 C         142.6957  144.5495  163.5736 C.3     1  UNL1        0.0179
     35 C         143.8879  144.7713  164.4566 C.3     1  UNL1        0.0017
     36 C         144.0800  144.4470  163.0048 C.3     1  UNL1        0.0017
@<TRIPOS>BOND
     1    23    24   am
     2    24    25    2
     3    24     1    1
     4     1     2   ar
     5     2     3   ar
     6     3     4   ar
     7     4    28    1
     8    28    30    1
     9    30    31    1
    10    31    32    1
    11    32    33    1
    12    30    34    1
    13    34    35    1
    14    35    36    1
    15     4     5   ar
    16     5     6   ar
    17     6     7    1
    18     7     8    2
    19     8     9    1
    20     9    10    1
    21    10    14    1
    22    14    15   ar
    23    15    16   ar
    24    16    17   ar
    25    17    18    1
    26    17    19   ar
    27    19    20   ar
    28    10    11    2
    29    11    12    1
    30    12    13    2
    31     6     1   ar
    32    13     8    1
    33    33    31    1
    34    36    34    1
    35    13     5    1
    36    20    14   ar
    37    23    26    1
    38    23    27    1
    39    28    29    1
    40    18    21    1
    41    18    22    1
@<TRIPOS>MOLECULE
*****
 36 41 0 0 0
SMALL
GASTEIGER

@<TRIPOS>ATOM
      1 C         142.9655  139.5210  159.5651 C.ar    1  UNL1        0.0899
      2 C         143.2223  140.6146  158.5710 C.ar    1  UNL1        0.1063
      3 N         143.1223  142.0504  158.9932 N.ar    1  UNL1       -0.2291
      4 C         142.7656  142.3928  160.4094 C.ar    1  UNL1        0.1299
      5 C         142.5088  141.2992  161.4034 C.ar    1  UNL1        0.0503
      6 C         142.6088  139.8633  160.9812 C.ar    1  UNL1        0.0895
      7 N         142.3027  139.0071  162.1742 N.2     1  UNL1       -0.2490
      8 C         142.0137  139.9138  163.3337 C.2     1  UNL1        0.0634
      9 C         141.6509  139.6325  164.7617 C.3     1  UNL1        0.0721
     10 C         141.4155  140.7679  165.7133 C.2     1  UNL1       -0.0132
     11 C         141.5429  142.1845  165.2369 C.2     1  UNL1       -0.0037
     12 C         141.9056  142.4658  163.8089 C.2     1  UNL1        0.0010
     13 C         142.1410  141.3304  162.8573 C.2     1  UNL1        0.0180
     14 C         141.0528  140.4866  167.1414 C.ar    1  UNL1        0.0349
     15 C         142.1111  140.5172  168.2040 C.ar    1  UNL1        0.1030
     16 N         141.7484  140.2360  169.6320 N.ar    1  UNL1       -0.2125
     17 C         140.3273  139.9241  169.9975 C.ar    1  UNL1        0.2137
     18 N         139.9647  139.6429  171.4256 N.pl3   1  UNL1       -0.3274
     19 N         139.2691  139.8936  168.9349 N.ar    1  UNL1       -0.2125
     20 C         139.6318  140.1748  167.5068 C.ar    1  UNL1        0.1030
     21 H         140.6593  139.6630  172.1230 H       1  UNL1        0.1452
     22 H         139.0320  139.4382  171.6654 H       1  UNL1        0.1452
     23 N         143.0955  136.9996  160.1775 N.am    1  UNL1       -0.3252
     24 C         143.0655  138.0851  159.1429 C.2     1  UNL1        0.2457
     25 O         143.1355  137.7348  157.6860 O.2     1  UNL1       -0.2703
     26 H         143.1611  136.0571  159.9004 H       1  UNL1        0.1453
     27 H         143.0495  137.2295  161.1337 H       1  UNL1        0.1453
     28 N         142.6656  143.8287  160.8315 N.pl3   1  UNL1       -0.3197
     29 H         143.3923  144.2403  161.3528 H       1  UNL1        0.1481
     30 C         141.4584  144.6376  160.4593 C.3     1  UNL1        0.0702
     31 C         140.3620  144.8524  161.4601 C.3     1  UNL1        0.0179
     32 C         139.6415  145.7457  162.4260 C.3     1  UNL1        0.0017
     33 C         139.1834  144.3312  162.2277 C.3     1  UNL1        0.0017
     34 C         141.3476  145.2315  159.0864 C.3     1  UNL1        0.0179
     35 C         141.9859  145.6363  157.7907 C.3     1  UNL1        0.0017
     36 C         140.5174  145.8555  158.0040 C.3     1  UNL1        0.0017
@<TRIPOS>BOND
     1    23    24   am
     2    24    25    2
     3    24     1    1
     4     1     2   ar
     5     2     3   ar
     6     3     4   ar
     7     4    28    1
     8    28    30    1
     9    30    31    1
    10    31    32    1
    11    32    33    1
    12    30    34    1
    13    34    35    1
    14    35    36    1
    15     4     5   ar
    16     5     6   ar
    17     6     7    1
    18     7     8    2
    19     8     9    1
    20     9    10    1
    21    10    14    1
    22    14    15   ar
    23    15    16   ar
    24    16    17   ar
    25    17    18    1
    26    17    19   ar
    27    19    20   ar
    28    10    11    2
    29    11    12    1
    30    12    13    2
    31     6     1   ar
    32    13     8    1
    33    33    31    1
    34    36    34    1
    35    13     5    1
    36    20    14   ar
    37    23    26    1
    38    23    27    1
    39    28    29    1
    40    18    21    1
    41    18    22    1
@<TRIPOS>MOLECULE
*****
 36 41 0 0 0
SMALL
GASTEIGER

@<TRIPOS>ATOM
      1 C         143.0027  139.5617  159.7153 C.ar    1  UNL1        0.0899
      2 C         143.2461  140.5946  158.6553 C.ar    1  UNL1        0.1063
      3 N         143.1785  142.0530  158.9997 N.ar    1  UNL1       -0.2291
      4 C         142.8674  142.4784  160.4040 C.ar    1  UNL1        0.1299
      5 C         142.6239  141.4454  161.4641 C.ar    1  UNL1        0.0503
      6 C         142.6916  139.9871  161.1197 C.ar    1  UNL1        0.0895
      7 N         142.4080  139.2028  162.3665 N.2     1  UNL1       -0.2490
      8 C         142.1650  140.1765  163.4814 C.2     1  UNL1        0.0634
      9 C         141.8395  139.9800  164.9324 C.3     1  UNL1        0.0721
     10 C         141.6475  141.1696  165.8256 C.2     1  UNL1       -0.0132
     11 C         141.7810  142.5557  165.2679 C.2     1  UNL1       -0.0037
     12 C         142.1064  142.7521  163.8169 C.2     1  UNL1        0.0010
     13 C         142.2985  141.5625  162.9237 C.2     1  UNL1        0.0180
     14 C         141.3220  140.9732  167.2767 C.ar    1  UNL1        0.0349
     15 C         140.2039  140.0569  167.6772 C.ar    1  UNL1        0.1030
     16 N         139.8784  139.8605  169.1282 N.ar    1  UNL1       -0.2125
     17 C         140.6709  140.5804  170.1788 C.ar    1  UNL1        0.2137
     18 N         140.3454  140.3840  171.6298 N.pl3   1  UNL1       -0.3274
     19 N         141.7890  141.4967  169.7783 N.ar    1  UNL1       -0.2125
     20 C         142.1145  141.6931  168.3272 C.ar    1  UNL1        0.1030
     21 H         139.6116  139.7826  171.8926 H       1  UNL1        0.1452
     22 H         140.8655  140.8565  172.3193 H       1  UNL1        0.1452
     23 N         143.1486  137.0778  160.4627 N.am    1  UNL1       -0.3252
     24 C         143.0703  138.1033  159.3710 C.2     1  UNL1        0.2457
     25 O         143.0598  137.6705  157.9347 O.2     1  UNL1       -0.2703
     26 H         143.1930  136.1206  160.2367 H       1  UNL1        0.1453
     27 H         143.1555  137.3618  161.4053 H       1  UNL1        0.1453
     28 N         142.7997  143.9368  160.7484 N.pl3   1  UNL1       -0.3197
     29 H         143.5679  144.3772  161.1788 H       1  UNL1        0.1481
     30 C         141.5616  144.7243  160.4368 C.3     1  UNL1        0.0702
     31 C         141.3197  145.2206  159.0421 C.3     1  UNL1        0.0179
     32 C         141.8091  145.9212  157.8094 C.3     1  UNL1        0.0017
     33 C         140.4113  145.3795  157.8591 C.3     1  UNL1        0.0017
     34 C         140.5655  145.0155  161.5198 C.3     1  UNL1        0.0179
     35 C         140.1298  145.8358  162.6977 C.3     1  UNL1        0.0017
     36 C         139.2759  144.6997  162.2178 C.3     1  UNL1        0.0017
@<TRIPOS>BOND
     1    23    24   am
     2    24    25    2
     3    24     1    1
     4     1     2   ar
     5     2     3   ar
     6     3     4   ar
     7     4    28    1
     8    28    30    1
     9    30    31    1
    10    31    32    1
    11    32    33    1
    12    30    34    1
    13    34    35    1
    14    35    36    1
    15     4     5   ar
    16     5     6   ar
    17     6     7    1
    18     7     8    2
    19     8     9    1
    20     9    10    1
    21    10    14    1
    22    14    15   ar
    23    15    16   ar
    24    16    17   ar
    25    17    18    1
    26    17    19   ar
    27    19    20   ar
    28    10    11    2
    29    11    12    1
    30    12    13    2
    31     6     1   ar
    32    13     8    1
    33    33    31    1
    34    36    34    1
    35    13     5    1
    36    20    14   ar
    37    23    26    1
    38    23    27    1
    39    28    29    1
    40    18    21    1
    41    18    22    1
@<TRIPOS>MOLECULE
*****
 36 41 0 0 0
SMALL
GASTEIGER

@<TRIPOS>ATOM
      1 C         143.1852  142.5965  165.0658 C.ar    1  UNL1        0.0899
      2 C         142.5135  141.9459  166.2385 C.ar    1  UNL1        0.1063
      3 N         141.0754  141.5301  166.1433 N.ar    1  UNL1       -0.2291
      4 C         140.3091  141.7649  164.8754 C.ar    1  UNL1        0.1299
      5 C         140.9809  142.4155  163.7026 C.ar    1  UNL1        0.0503
      6 C         142.4189  142.8313  163.7978 C.ar    1  UNL1        0.0895
      7 N         142.8114  143.4460  162.4870 N.2     1  UNL1       -0.2490
      8 C         141.6159  143.4100  161.5817 C.2     1  UNL1        0.0634
      9 C         141.4113  143.8749  160.1704 C.3     1  UNL1        0.0721
     10 C         140.0754  143.7030  159.5103 C.2     1  UNL1       -0.0132
     11 C         138.9441  143.0661  160.2616 C.2     1  UNL1       -0.0037
     12 C         139.1487  142.6012  161.6730 C.2     1  UNL1        0.0010
     13 C         140.4846  142.7731  162.3330 C.2     1  UNL1        0.0180
     14 C         139.8708  144.1679  158.0989 C.ar    1  UNL1        0.0349
     15 C         140.3371  145.5317  157.6835 C.ar    1  UNL1        0.1030
     16 N         140.1325  145.9967  156.2722 N.ar    1  UNL1       -0.2125
     17 C         139.4616  145.0978  155.2761 C.ar    1  UNL1        0.2137
     18 N         139.2570  145.5627  153.8648 N.pl3   1  UNL1       -0.3274
     19 N         138.9953  143.7339  155.6916 N.ar    1  UNL1       -0.2125
     20 C         139.1999  143.2690  157.1030 C.ar    1  UNL1        0.1030
     21 H         139.5630  146.4578  153.5922 H       1  UNL1        0.1452
     22 H         138.8166  144.9727  153.2111 H       1  UNL1        0.1452
     23 N         145.6380  142.4223  164.2272 N.am    1  UNL1       -0.3252
     24 C         144.6233  143.0123  165.1609 C.2     1  UNL1        0.2457
     25 O         145.0466  144.0183  166.1900 O.2     1  UNL1       -0.2703
     26 H         146.5819  142.6952  164.2896 H       1  UNL1        0.1453
     27 H         145.3602  141.7621  163.5518 H       1  UNL1        0.1453
     28 N         138.8710  141.3490  164.7803 N.pl3   1  UNL1       -0.3197
     29 H         138.1620  142.0315  164.7530 H       1  UNL1        0.1481
     30 C         138.5133  139.8932  164.7266 C.3     1  UNL1        0.0702
     31 C         138.4583  139.1827  163.4067 C.3     1  UNL1        0.0179
     32 C         138.8921  138.0529  162.5205 C.3     1  UNL1        0.0017
     33 C         137.9291  139.0818  162.0068 C.3     1  UNL1        0.0017
     34 C         138.2106  139.1481  165.9926 C.3     1  UNL1        0.0179
     35 C         138.1432  139.1056  167.4906 C.3     1  UNL1        0.0017
     36 C         137.7536  137.8998  166.6878 C.3     1  UNL1        0.0017
@<TRIPOS>BOND
     1    23    24   am
     2    24    25    2
     3    24     1    1
     4     1     2   ar
     5     2     3   ar
     6     3     4   ar
     7     4    28    1
     8    28    30    1
     9    30    31    1
    10    31    32    1
    11    32    33    1
    12    30    34    1
    13    34    35    1
    14    35    36    1
    15     4     5   ar
    16     5     6   ar
    17     6     7    1
    18     7     8    2
    19     8     9    1
    20     9    10    1
    21    10    14    1
    22    14    15   ar
    23    15    16   ar
    24    16    17   ar
    25    17    18    1
    26    17    19   ar
    27    19    20   ar
    28    10    11    2
    29    11    12    1
    30    12    13    2
    31     6     1   ar
    32    13     8    1
    33    33    31    1
    34    36    34    1
    35    13     5    1
    36    20    14   ar
    37    23    26    1
    38    23    27    1
    39    28    29    1
    40    18    21    1
    41    18    22    1
