@<TRIPOS>MOLECULE
*****
 38 41 0 0 0
SMALL
GASTEIGER

@<TRIPOS>ATOM
      1 O         141.4261  139.6837  159.4132 O.2     1  UNL1       -0.2733
      2 C         142.7405  139.1695  158.9052 C.2     1  UNL1        0.2425
      3 N         143.9832  139.3474  159.7261 N.am    1  UNL1       -0.3032
      4 H         144.8459  139.0100  159.3928 H       1  UNL1        0.1495
      5 C         143.9116  140.0395  161.0551 C.3     1  UNL1        0.0889
      6 C         144.1426  141.5009  161.3017 C.3     1  UNL1        0.0383
      7 C         143.9701  141.7562  162.7697 C.3     1  UNL1        0.0738
      8 N         143.6325  140.4525  163.4304 N.3     1  UNL1       -0.2725
      9 C         143.5963  139.3915  162.3707 C.3     1  UNL1        0.0919
     10 C         143.3761  140.2461  164.8938 C.3     1  UNL1        0.0577
     11 C         143.5504  138.8857  165.5012 C.3     1  UNL1        0.0187
     12 C         143.2940  138.6792  166.9646 C.3     1  UNL1        0.0325
     13 C         142.8633  139.8332  167.8207 C.3     1  UNL1        0.1071
     14 O         142.8914  138.7419  168.8494 O.3     1  UNL1       -0.3827
     15 C         142.6891  141.1937  167.2133 C.3     1  UNL1        0.0325
     16 C         142.9455  141.4001  165.7499 C.3     1  UNL1        0.0187
     17 H         143.1610  137.9096  168.4306 H       1  UNL1        0.2107
     18 C         142.4424  140.6082  169.0341 C.ar    1  UNL1        0.0048
     19 C         141.3473  140.0851  169.9154 C.ar    1  UNL1        0.0186
     20 C         140.9264  140.8601  171.1288 C.ar    1  UNL1        0.0986
     21 N         141.6007  142.1582  171.4608 N.ar    1  UNL1       -0.2423
     22 C         142.6959  142.6813  170.5793 C.ar    1  UNL1        0.0986
     23 C         143.1168  141.9063  169.3660 C.ar    1  UNL1        0.0186
     24 C         142.8122  138.4775  157.5764 C.3     1  UNL1        0.1759
     25 N         142.5474  137.0040  157.4828 N.am    1  UNL1       -0.2931
     26 C         143.3673  136.1517  156.5603 C.2     1  UNL1        0.2462
     27 O         144.4522  136.7728  155.7312 O.2     1  UNL1       -0.2701
     28 H         141.8354  136.5963  158.0270 H       1  UNL1        0.1502
     29 C         143.1025  134.6782  156.4667 C.ar    1  UNL1        0.0533
     30 C         141.9527  134.1734  155.6464 C.ar    1  UNL1        0.0045
     31 C         141.6879  132.6999  155.5529 C.ar    1  UNL1        0.0001
     32 C         142.5730  131.7313  156.2797 C.ar    1  UNL1        0.0039
     33 C         143.7228  132.2360  157.1001 C.ar    1  UNL1        0.0716
     34 C         143.9876  133.7095  157.1936 C.ar    1  UNL1        0.0084
     35 C         144.6079  131.2674  157.8269 C.3     1  UNL1        0.4186
     36 F         145.4930  130.2987  158.5538 F       1  UNL1       -0.1659
     37 F         143.5817  130.1894  157.6399 F       1  UNL1       -0.1659
     38 F         145.6341  132.3453  158.0140 F       1  UNL1       -0.1659
@<TRIPOS>BOND
     1     1     2    2
     2     2    24    1
     3    24    25    1
     4    25    26   am
     5    26    27    2
     6    26    29    1
     7    29    30   ar
     8    30    31   ar
     9    31    32   ar
    10    32    33   ar
    11    33    35    1
    12    35    36    1
    13    35    37    1
    14    35    38    1
    15    33    34   ar
    16     2     3   am
    17     5     3    1
    18     5     6    1
    19     6     7    1
    20     7     8    1
    21    10     8    1
    22    10    11    1
    23    11    12    1
    24    12    13    1
    25    13    14    1
    26    13    18    1
    27    18    19   ar
    28    19    20   ar
    29    20    21   ar
    30    21    22   ar
    31    22    23   ar
    32    13    15    1
    33    15    16    1
    34     8     9    1
    35    34    29   ar
    36     9     5    1
    37    16    10    1
    38    23    18   ar
    39    25    28    1
    40     3     4    1
    41    14    17    1
@<TRIPOS>MOLECULE
*****
 38 41 0 0 0
SMALL
GASTEIGER

@<TRIPOS>ATOM
      1 O         140.8384  140.3144  159.5283 O.2     1  UNL1       -0.2733
      2 C         141.6768  139.0711  159.4912 C.2     1  UNL1        0.2425
      3 N         141.5432  138.0439  160.5761 N.am    1  UNL1       -0.3032
      4 H         142.0934  137.2279  160.5517 H       1  UNL1        0.1495
      5 C         140.5713  138.2600  161.6980 C.3     1  UNL1        0.0889
      6 C         139.0792  138.1348  161.6084 C.3     1  UNL1        0.0383
      7 C         138.5066  138.4366  162.9616 C.3     1  UNL1        0.0738
      8 N         139.6449  138.7483  163.8876 N.3     1  UNL1       -0.2725
      9 C         140.9209  138.6391  163.1066 C.3     1  UNL1        0.0919
     10 C         139.5276  139.1063  165.3395 C.3     1  UNL1        0.0577
     11 C         138.3184  138.6849  166.1206 C.3     1  UNL1        0.0187
     12 C         138.2012  139.0429  167.5725 C.3     1  UNL1        0.0325
     13 C         139.2932  139.8224  168.2433 C.3     1  UNL1        0.1071
     14 O         138.3493  139.6509  169.3964 O.3     1  UNL1       -0.3827
     15 C         140.5024  140.2438  167.4622 C.3     1  UNL1        0.0325
     16 C         140.6197  139.8858  166.0103 C.3     1  UNL1        0.0187
     17 H         137.5713  139.1498  169.1057 H       1  UNL1        0.2107
     18 C         140.0574  140.5423  169.3146 C.ar    1  UNL1        0.0048
     19 C         139.6436  141.9221  169.7326 C.ar    1  UNL1        0.0186
     20 C         140.4078  142.6421  170.8039 C.ar    1  UNL1        0.0986
     21 N         141.5858  141.9821  171.4573 N.ar    1  UNL1       -0.2423
     22 C         141.9995  140.6021  171.0392 C.ar    1  UNL1        0.0986
     23 C         141.2353  139.8823  169.9679 C.ar    1  UNL1        0.0186
     24 C         142.6486  138.8550  158.3693 C.3     1  UNL1        0.1759
     25 N         142.9693  137.4627  157.9125 N.am    1  UNL1       -0.2931
     26 C         142.1868  136.8415  156.7937 C.2     1  UNL1        0.2462
     27 O         141.0836  137.6126  156.1317 O.2     1  UNL1       -0.2701
     28 H         143.6934  136.9565  158.3470 H       1  UNL1        0.1502
     29 C         142.5074  135.4492  156.3369 C.ar    1  UNL1        0.0533
     30 C         141.8205  134.8783  155.1318 C.ar    1  UNL1        0.0045
     31 C         142.1411  133.4860  154.6751 C.ar    1  UNL1        0.0001
     32 C         143.1488  132.6646  155.4234 C.ar    1  UNL1        0.0039
     33 C         143.8357  133.2354  156.6284 C.ar    1  UNL1        0.0716
     34 C         143.5150  134.6277  157.0852 C.ar    1  UNL1        0.0084
     35 C         144.8433  132.4140  157.3767 C.3     1  UNL1        0.4186
     36 F         145.8509  131.5925  158.1250 F       1  UNL1       -0.1659
     37 F         144.6257  133.2587  158.5970 F       1  UNL1       -0.1659
     38 F         145.0609  131.5693  156.1564 F       1  UNL1       -0.1659
@<TRIPOS>BOND
     1     1     2    2
     2     2    24    1
     3    24    25    1
     4    25    26   am
     5    26    27    2
     6    26    29    1
     7    29    30   ar
     8    30    31   ar
     9    31    32   ar
    10    32    33   ar
    11    33    35    1
    12    35    36    1
    13    35    37    1
    14    35    38    1
    15    33    34   ar
    16     2     3   am
    17     5     3    1
    18     5     6    1
    19     6     7    1
    20     7     8    1
    21    10     8    1
    22    10    11    1
    23    11    12    1
    24    12    13    1
    25    13    14    1
    26    13    18    1
    27    18    19   ar
    28    19    20   ar
    29    20    21   ar
    30    21    22   ar
    31    22    23   ar
    32    13    15    1
    33    15    16    1
    34     8     9    1
    35    34    29   ar
    36     9     5    1
    37    16    10    1
    38    23    18   ar
    39    25    28    1
    40     3     4    1
    41    14    17    1
@<TRIPOS>MOLECULE
*****
 38 41 0 0 0
SMALL
GASTEIGER

@<TRIPOS>ATOM
      1 O         141.0859  139.0076  159.4516 O.2     1  UNL1       -0.2733
      2 C         142.3943  138.4404  158.9867 C.2     1  UNL1        0.2425
      3 N         143.6375  138.6612  159.7963 N.am    1  UNL1       -0.3032
      4 H         144.4963  138.2888  159.4912 H       1  UNL1        0.1495
      5 C         143.5723  139.4493  161.0710 C.3     1  UNL1        0.0889
      6 C         143.6960  140.9391  161.1938 C.3     1  UNL1        0.0383
      7 C         143.5721  141.2965  162.6453 C.3     1  UNL1        0.0738
      8 N         143.3719  140.0275  163.4197 N.3     1  UNL1       -0.2725
      9 C         143.3720  138.8859  162.4467 C.3     1  UNL1        0.0919
     10 C         143.2014  139.9192  164.9060 C.3     1  UNL1        0.0577
     11 C         143.4708  138.6163  165.5988 C.3     1  UNL1        0.0187
     12 C         143.3003  138.5080  167.0851 C.3     1  UNL1        0.0325
     13 C         142.8605  139.7025  167.8786 C.3     1  UNL1        0.1071
     14 O         142.9931  138.6927  168.9799 O.3     1  UNL1       -0.3827
     15 C         142.5911  141.0054  167.1858 C.3     1  UNL1        0.0325
     16 C         142.7616  141.1137  165.6995 C.3     1  UNL1        0.0187
     17 H         143.2798  137.8441  168.6076 H       1  UNL1        0.2107
     18 C         142.4668  140.5463  169.0546 C.ar    1  UNL1        0.0048
     19 C         141.4060  140.0665  170.0004 C.ar    1  UNL1        0.0186
     20 C         141.0122  140.9103  171.1764 C.ar    1  UNL1        0.0986
     21 N         141.6793  142.2340  171.4066 N.ar    1  UNL1       -0.2423
     22 C         142.7401  142.7138  170.4608 C.ar    1  UNL1        0.0986
     23 C         143.1338  141.8699  169.2848 C.ar    1  UNL1        0.0186
     24 C         142.4595  137.6523  157.7121 C.3     1  UNL1        0.1759
     25 N         143.1924  136.3439  157.6759 N.am    1  UNL1       -0.2931
     26 C         142.7610  135.2688  156.7231 C.2     1  UNL1        0.2462
     27 O         141.5968  135.5019  155.8064 O.2     1  UNL1       -0.2701
     28 H         143.9565  136.1909  158.2775 H       1  UNL1        0.1502
     29 C         143.4938  133.9604  156.6869 C.ar    1  UNL1        0.0533
     30 C         144.3283  133.5355  157.8586 C.ar    1  UNL1        0.0045
     31 C         145.0611  132.2273  157.8224 C.ar    1  UNL1        0.0001
     32 C         144.9594  131.3438  156.6144 C.ar    1  UNL1        0.0039
     33 C         144.1248  131.7687  155.4427 C.ar    1  UNL1        0.0716
     34 C         143.3920  133.0770  155.4789 C.ar    1  UNL1        0.0084
     35 C         144.0230  130.8852  154.2347 C.3     1  UNL1        0.4186
     36 F         143.9213  130.0018  153.0268 F       1  UNL1       -0.1659
     37 F         142.9397  131.7640  153.6833 F       1  UNL1       -0.1659
     38 F         145.1063  130.0064  154.7862 F       1  UNL1       -0.1659
@<TRIPOS>BOND
     1     1     2    2
     2     2    24    1
     3    24    25    1
     4    25    26   am
     5    26    27    2
     6    26    29    1
     7    29    30   ar
     8    30    31   ar
     9    31    32   ar
    10    32    33   ar
    11    33    35    1
    12    35    36    1
    13    35    37    1
    14    35    38    1
    15    33    34   ar
    16     2     3   am
    17     5     3    1
    18     5     6    1
    19     6     7    1
    20     7     8    1
    21    10     8    1
    22    10    11    1
    23    11    12    1
    24    12    13    1
    25    13    14    1
    26    13    18    1
    27    18    19   ar
    28    19    20   ar
    29    20    21   ar
    30    21    22   ar
    31    22    23   ar
    32    13    15    1
    33    15    16    1
    34     8     9    1
    35    34    29   ar
    36     9     5    1
    37    16    10    1
    38    23    18   ar
    39    25    28    1
    40     3     4    1
    41    14    17    1
@<TRIPOS>MOLECULE
*****
 38 41 0 0 0
SMALL
GASTEIGER

@<TRIPOS>ATOM
      1 O         139.8665  140.7384  158.6602 O.2     1  UNL1       -0.2733
      2 C         138.4049  140.4494  158.4861 C.2     1  UNL1        0.2425
      3 N         137.6535  139.7126  159.5550 N.am    1  UNL1       -0.3032
      4 H         136.6943  139.5229  159.4407 H       1  UNL1        0.1495
      5 C         138.3638  139.2648  160.7981 C.3     1  UNL1        0.0889
      6 C         139.3405  138.1306  160.8954 C.3     1  UNL1        0.0383
      7 C         139.8023  138.0375  162.3195 C.3     1  UNL1        0.0738
      8 N         139.1109  139.1142  163.1024 N.3     1  UNL1       -0.2725
      9 C         138.2219  139.8727  162.1620 C.3     1  UNL1        0.0919
     10 C         139.2791  139.3848  164.5681 C.3     1  UNL1        0.0577
     11 C         138.2420  138.9099  165.5422 C.3     1  UNL1        0.0187
     12 C         138.4102  139.1805  167.0080 C.3     1  UNL1        0.0325
     13 C         139.6154  139.9260  167.4996 C.3     1  UNL1        0.1071
     14 O         138.9121  139.6804  168.8015 O.3     1  UNL1       -0.3827
     15 C         140.6525  140.4008  166.5255 C.3     1  UNL1        0.0325
     16 C         140.4844  140.1302  165.0597 C.3     1  UNL1        0.0187
     17 H         138.0899  139.1924  168.6378 H       1  UNL1        0.2107
     18 C         140.5764  140.5861  168.4434 C.ar    1  UNL1        0.0048
     19 C         141.5613  139.7567  169.2127 C.ar    1  UNL1        0.0186
     20 C         142.5223  140.4168  170.1565 C.ar    1  UNL1        0.0986
     21 N         142.4984  141.9065  170.3310 N.ar    1  UNL1       -0.2423
     22 C         141.5133  142.7359  169.5616 C.ar    1  UNL1        0.0986
     23 C         140.5524  142.0757  168.6178 C.ar    1  UNL1        0.0186
     24 C         137.6947  140.8971  157.2431 C.3     1  UNL1        0.1759
     25 N         136.1984  141.0030  157.2311 N.am    1  UNL1       -0.2931
     26 C         135.4005  140.2374  156.2175 C.2     1  UNL1        0.2462
     27 O         136.0988  139.3661  155.2160 O.2     1  UNL1       -0.2701
     28 H         135.7401  141.5749  157.8884 H       1  UNL1        0.1502
     29 C         133.9042  140.3433  156.2055 C.ar    1  UNL1        0.0533
     30 C         133.2308  141.3522  155.3232 C.ar    1  UNL1        0.0045
     31 C         131.7346  141.4580  155.3112 C.ar    1  UNL1        0.0001
     32 C         130.9119  140.5548  156.1815 C.ar    1  UNL1        0.0039
     33 C         131.5853  139.5459  157.0638 C.ar    1  UNL1        0.0716
     34 C         133.0815  139.4401  157.0758 C.ar    1  UNL1        0.0084
     35 C         130.7626  138.6427  157.9340 C.3     1  UNL1        0.4186
     36 F         129.9398  137.7396  158.8043 F       1  UNL1       -0.1659
     37 F         132.0004  138.2254  158.6712 F       1  UNL1       -0.1659
     38 F         129.5247  139.0601  157.1969 F       1  UNL1       -0.1659
@<TRIPOS>BOND
     1     1     2    2
     2     2    24    1
     3    24    25    1
     4    25    26   am
     5    26    27    2
     6    26    29    1
     7    29    30   ar
     8    30    31   ar
     9    31    32   ar
    10    32    33   ar
    11    33    35    1
    12    35    36    1
    13    35    37    1
    14    35    38    1
    15    33    34   ar
    16     2     3   am
    17     5     3    1
    18     5     6    1
    19     6     7    1
    20     7     8    1
    21    10     8    1
    22    10    11    1
    23    11    12    1
    24    12    13    1
    25    13    14    1
    26    13    18    1
    27    18    19   ar
    28    19    20   ar
    29    20    21   ar
    30    21    22   ar
    31    22    23   ar
    32    13    15    1
    33    15    16    1
    34     8     9    1
    35    34    29   ar
    36     9     5    1
    37    16    10    1
    38    23    18   ar
    39    25    28    1
    40     3     4    1
    41    14    17    1
@<TRIPOS>MOLECULE
*****
 38 41 0 0 0
SMALL
GASTEIGER

@<TRIPOS>ATOM
      1 O         142.3475  139.9561  159.3390 O.2     1  UNL1       -0.2733
      2 C         142.4255  138.4725  159.1323 C.2     1  UNL1        0.2425
      3 N         142.6522  137.5630  160.3034 N.am    1  UNL1       -0.3032
      4 H         142.7034  136.5893  160.1677 H       1  UNL1        0.1495
      5 C         142.8008  138.1372  161.6812 C.3     1  UNL1        0.0889
      6 C         144.0714  138.6533  162.2890 C.3     1  UNL1        0.0383
      7 C         143.7608  139.1311  163.6765 C.3     1  UNL1        0.0738
      8 N         142.2982  138.9103  163.9263 N.3     1  UNL1       -0.2725
      9 C         141.7050  138.2960  162.6931 C.3     1  UNL1        0.0919
     10 C         141.5588  139.2450  165.1877 C.3     1  UNL1        0.0577
     11 C         140.1389  138.7958  165.3664 C.3     1  UNL1        0.0187
     12 C         139.3995  139.1305  166.6278 C.3     1  UNL1        0.0325
     13 C         140.0800  139.9144  167.7106 C.3     1  UNL1        0.1071
     14 O         138.7341  139.7132  168.3414 O.3     1  UNL1       -0.3827
     15 C         141.5000  140.3636  167.5319 C.3     1  UNL1        0.0325
     16 C         142.2394  140.0289  166.2705 C.3     1  UNL1        0.0187
     17 H         138.1673  139.2061  167.7392 H       1  UNL1        0.2107
     18 C         140.2931  140.6284  169.0124 C.ar    1  UNL1        0.0048
     19 C         140.0890  142.1121  169.0963 C.ar    1  UNL1        0.0186
     20 C         140.3021  142.8261  170.3981 C.ar    1  UNL1        0.0986
     21 N         140.7193  142.0564  171.6162 N.ar    1  UNL1       -0.2423
     22 C         140.9234  140.5727  171.5322 C.ar    1  UNL1        0.0986
     23 C         140.7103  139.8587  170.2304 C.ar    1  UNL1        0.0186
     24 C         142.2769  137.8983  157.7546 C.3     1  UNL1        0.1759
     25 N         142.8137  136.5311  157.4499 N.am    1  UNL1       -0.2931
     26 C         142.2737  135.7559  156.2848 C.2     1  UNL1        0.2462
     27 O         141.1970  136.3479  155.4244 O.2     1  UNL1       -0.2701
     28 H         143.5203  136.1426  158.0146 H       1  UNL1        0.1502
     29 C         142.8104  134.3887  155.9801 C.ar    1  UNL1        0.0533
     30 C         142.5225  133.7482  154.6547 C.ar    1  UNL1        0.0045
     31 C         143.0592  132.3811  154.3501 C.ar    1  UNL1        0.0001
     32 C         143.8839  131.6545  155.3708 C.ar    1  UNL1        0.0039
     33 C         144.1718  132.2950  156.6963 C.ar    1  UNL1        0.0716
     34 C         143.6351  133.6621  157.0009 C.ar    1  UNL1        0.0084
     35 C         144.9964  131.5684  157.7171 C.3     1  UNL1        0.4186
     36 F         145.8211  130.8418  158.7378 F       1  UNL1       -0.1659
     37 F         145.5046  132.8793  158.2397 F       1  UNL1       -0.1659
     38 F         144.4883  130.2574  157.1944 F       1  UNL1       -0.1659
@<TRIPOS>BOND
     1     1     2    2
     2     2    24    1
     3    24    25    1
     4    25    26   am
     5    26    27    2
     6    26    29    1
     7    29    30   ar
     8    30    31   ar
     9    31    32   ar
    10    32    33   ar
    11    33    35    1
    12    35    36    1
    13    35    37    1
    14    35    38    1
    15    33    34   ar
    16     2     3   am
    17     5     3    1
    18     5     6    1
    19     6     7    1
    20     7     8    1
    21    10     8    1
    22    10    11    1
    23    11    12    1
    24    12    13    1
    25    13    14    1
    26    13    18    1
    27    18    19   ar
    28    19    20   ar
    29    20    21   ar
    30    21    22   ar
    31    22    23   ar
    32    13    15    1
    33    15    16    1
    34     8     9    1
    35    34    29   ar
    36     9     5    1
    37    16    10    1
    38    23    18   ar
    39    25    28    1
    40     3     4    1
    41    14    17    1
@<TRIPOS>MOLECULE
*****
 38 41 0 0 0
SMALL
GASTEIGER

@<TRIPOS>ATOM
      1 O         139.0126  143.4555  158.6798 O.2     1  UNL1       -0.2733
      2 C         140.0656  144.3687  158.1254 C.2     1  UNL1        0.2425
      3 N         140.8349  145.2711  159.0439 N.am    1  UNL1       -0.3032
      4 H         141.5260  145.8705  158.6800 H       1  UNL1        0.1495
      5 C         140.5512  145.2605  160.5168 C.3     1  UNL1        0.0889
      6 C         139.6991  146.2478  161.2578 C.3     1  UNL1        0.0383
      7 C         139.6911  145.8581  162.7063 C.3     1  UNL1        0.0738
      8 N         140.5384  144.6299  162.8605 N.3     1  UNL1       -0.2725
      9 C         141.0700  144.2606  161.5074 C.3     1  UNL1        0.0919
     10 C         140.8069  143.8994  164.1428 C.3     1  UNL1        0.0577
     11 C         142.1414  143.2544  164.3732 C.3     1  UNL1        0.0187
     12 C         142.4099  142.5239  165.6554 C.3     1  UNL1        0.0325
     13 C         141.3440  142.4383  166.7073 C.3     1  UNL1        0.1071
     14 O         142.4406  141.6711  167.3847 O.3     1  UNL1       -0.3827
     15 C         140.0095  143.0833  166.4769 C.3     1  UNL1        0.0325
     16 C         139.7409  143.8138  165.1947 C.3     1  UNL1        0.0187
     17 H         143.2190  141.6411  166.8067 H       1  UNL1        0.2107
     18 C         140.6588  142.0863  167.9945 C.ar    1  UNL1        0.0048
     19 C         140.0193  140.7396  168.1597 C.ar    1  UNL1        0.0186
     20 C         139.3341  140.3876  169.4469 C.ar    1  UNL1        0.0986
     21 N         139.2886  141.3823  170.5688 N.ar    1  UNL1       -0.2423
     22 C         139.9283  142.7291  170.4034 C.ar    1  UNL1        0.0986
     23 C         140.6134  143.0810  169.1162 C.ar    1  UNL1        0.0186
     24 C         140.3493  144.3794  156.6526 C.3     1  UNL1        0.1759
     25 N         140.6012  145.6788  155.9467 N.am    1  UNL1       -0.2931
     26 C         139.4699  146.3987  155.2745 C.2     1  UNL1        0.2462
     27 O         138.0867  145.8194  155.3082 O.2     1  UNL1       -0.2701
     28 H         141.5090  146.0590  155.9245 H       1  UNL1        0.1502
     29 C         139.7218  147.6981  154.5686 C.ar    1  UNL1        0.0533
     30 C         140.5768  147.7289  153.3367 C.ar    1  UNL1        0.0045
     31 C         140.8287  149.0283  152.6308 C.ar    1  UNL1        0.0001
     32 C         140.2254  150.2968  153.1570 C.ar    1  UNL1        0.0039
     33 C         139.3704  150.2660  154.3890 C.ar    1  UNL1        0.0716
     34 C         139.1185  148.9667  155.0948 C.ar    1  UNL1        0.0084
     35 C         138.7671  151.5346  154.9152 C.3     1  UNL1        0.4186
     36 F         138.1639  152.8031  155.4414 F       1  UNL1       -0.1659
     37 F         138.7161  152.0882  153.5220 F       1  UNL1       -0.1659
     38 F         138.8182  150.9810  156.3084 F       1  UNL1       -0.1659
@<TRIPOS>BOND
     1     1     2    2
     2     2    24    1
     3    24    25    1
     4    25    26   am
     5    26    27    2
     6    26    29    1
     7    29    30   ar
     8    30    31   ar
     9    31    32   ar
    10    32    33   ar
    11    33    35    1
    12    35    36    1
    13    35    37    1
    14    35    38    1
    15    33    34   ar
    16     2     3   am
    17     5     3    1
    18     5     6    1
    19     6     7    1
    20     7     8    1
    21    10     8    1
    22    10    11    1
    23    11    12    1
    24    12    13    1
    25    13    14    1
    26    13    18    1
    27    18    19   ar
    28    19    20   ar
    29    20    21   ar
    30    21    22   ar
    31    22    23   ar
    32    13    15    1
    33    15    16    1
    34     8     9    1
    35    34    29   ar
    36     9     5    1
    37    16    10    1
    38    23    18   ar
    39    25    28    1
    40     3     4    1
    41    14    17    1
@<TRIPOS>MOLECULE
*****
 38 41 0 0 0
SMALL
GASTEIGER

@<TRIPOS>ATOM
      1 O         144.0928  138.7775  159.8476 O.2     1  UNL1       -0.2733
      2 C         142.7517  138.8932  159.1857 C.2     1  UNL1        0.2425
      3 N         141.5031  138.8992  160.0169 N.am    1  UNL1       -0.3032
      4 H         140.6229  138.9751  159.5825 H       1  UNL1        0.1495
      5 C         141.5955  138.7894  161.5101 C.3     1  UNL1        0.0889
      6 C         141.5081  137.5224  162.3081 C.3     1  UNL1        0.0383
      7 C         141.6502  137.8774  163.7586 C.3     1  UNL1        0.0738
      8 N         141.8254  139.3639  163.8570 N.3     1  UNL1       -0.2725
      9 C         141.7916  139.9275  162.4674 C.3     1  UNL1        0.0919
     10 C         142.0032  140.1489  165.1228 C.3     1  UNL1        0.0577
     11 C         143.1259  141.1365  165.2413 C.3     1  UNL1        0.0187
     12 C         143.3037  141.9215  166.5071 C.3     1  UNL1        0.0325
     13 C         142.3588  141.7188  167.6543 C.3     1  UNL1        0.1071
     14 O         143.2623  142.7619  168.2422 O.3     1  UNL1       -0.3827
     15 C         141.2361  140.7311  167.5358 C.3     1  UNL1        0.0325
     16 C         141.0583  139.9462  166.2700 C.3     1  UNL1        0.0187
     17 H         143.9449  143.0000  167.5955 H       1  UNL1        0.2107
     18 C         141.7277  141.8784  169.0057 C.ar    1  UNL1        0.0048
     19 C         140.5990  142.8476  169.1966 C.ar    1  UNL1        0.0186
     20 C         139.9679  143.0072  170.5480 C.ar    1  UNL1        0.0986
     21 N         140.4655  142.1975  171.7085 N.ar    1  UNL1       -0.2423
     22 C         141.5943  141.2281  171.5175 C.ar    1  UNL1        0.0986
     23 C         142.2253  141.0686  170.1661 C.ar    1  UNL1        0.0186
     24 C         142.6592  139.0030  157.6927 C.3     1  UNL1        0.1759
     25 N         142.1944  137.8297  156.8817 N.am    1  UNL1       -0.2931
     26 C         143.1548  137.1149  155.9781 C.2     1  UNL1        0.2462
     27 O         144.5800  137.5733  155.8853 O.2     1  UNL1       -0.2701
     28 H         141.2590  137.5288  156.9426 H       1  UNL1        0.1502
     29 C         142.6900  135.9417  155.1671 C.ar    1  UNL1        0.0533
     30 C         142.2406  136.1404  153.7499 C.ar    1  UNL1        0.0045
     31 C         141.7758  134.9672  152.9391 C.ar    1  UNL1        0.0001
     32 C         141.7606  133.5953  153.5454 C.ar    1  UNL1        0.0039
     33 C         142.2100  133.3966  154.9626 C.ar    1  UNL1        0.0716
     34 C         142.6747  134.5698  155.7735 C.ar    1  UNL1        0.0084
     35 C         142.1947  132.0247  155.5689 C.3     1  UNL1        0.4186
     36 F         142.1794  130.6527  156.1753 F       1  UNL1       -0.1659
     37 F         141.8832  131.4344  154.2256 F       1  UNL1       -0.1659
     38 F         142.5062  132.6149  156.9123 F       1  UNL1       -0.1659
@<TRIPOS>BOND
     1     1     2    2
     2     2    24    1
     3    24    25    1
     4    25    26   am
     5    26    27    2
     6    26    29    1
     7    29    30   ar
     8    30    31   ar
     9    31    32   ar
    10    32    33   ar
    11    33    35    1
    12    35    36    1
    13    35    37    1
    14    35    38    1
    15    33    34   ar
    16     2     3   am
    17     5     3    1
    18     5     6    1
    19     6     7    1
    20     7     8    1
    21    10     8    1
    22    10    11    1
    23    11    12    1
    24    12    13    1
    25    13    14    1
    26    13    18    1
    27    18    19   ar
    28    19    20   ar
    29    20    21   ar
    30    21    22   ar
    31    22    23   ar
    32    13    15    1
    33    15    16    1
    34     8     9    1
    35    34    29   ar
    36     9     5    1
    37    16    10    1
    38    23    18   ar
    39    25    28    1
    40     3     4    1
    41    14    17    1
@<TRIPOS>MOLECULE
*****
 38 41 0 0 0
SMALL
GASTEIGER

@<TRIPOS>ATOM
      1 O         144.5771  143.6557  161.7245 O.2     1  UNL1       -0.2733
      2 C         143.1675  143.5670  162.2299 C.2     1  UNL1        0.2425
      3 N         142.1169  142.8838  161.4057 N.am    1  UNL1       -0.3032
      4 H         141.1918  142.8256  161.7374 H       1  UNL1        0.1495
      5 C         142.4758  142.2892  160.0761 C.3     1  UNL1        0.0889
      6 C         142.8719  143.0524  158.8470 C.3     1  UNL1        0.0383
      7 C         143.1424  142.0619  157.7535 C.3     1  UNL1        0.0738
      8 N         142.9135  140.6865  158.3068 N.3     1  UNL1       -0.2725
      9 C         142.5015  140.8270  159.7422 C.3     1  UNL1        0.0919
     10 C         143.0693  139.3971  157.5564 C.3     1  UNL1        0.0577
     11 C         143.8463  139.3650  156.2737 C.3     1  UNL1        0.0187
     12 C         144.0021  138.0756  155.5233 C.3     1  UNL1        0.0325
     13 C         143.3808  136.8183  156.0555 C.3     1  UNL1        0.1071
     14 O         144.0191  136.2852  154.8071 O.3     1  UNL1       -0.3827
     15 C         142.6038  136.8504  157.3382 C.3     1  UNL1        0.0325
     16 C         142.4480  138.1398  158.0886 C.3     1  UNL1        0.0187
     17 H         144.4727  137.0060  154.3428 H       1  UNL1        0.2107
     18 C         142.9812  135.3758  156.1542 C.ar    1  UNL1        0.0048
     19 C         143.6844  134.4670  157.1182 C.ar    1  UNL1        0.0186
     20 C         143.2848  133.0246  157.2169 C.ar    1  UNL1        0.0986
     21 N         142.1820  132.4910  156.3514 N.ar    1  UNL1       -0.2423
     22 C         141.4787  133.3999  155.3873 C.ar    1  UNL1        0.0986
     23 C         141.8784  134.8423  155.2887 C.ar    1  UNL1        0.0186
     24 C         142.8086  144.1615  163.5594 C.3     1  UNL1        0.1759
     25 N         142.3519  143.2740  164.6792 N.am    1  UNL1       -0.2931
     26 C         140.9048  142.8964  164.7943 C.2     1  UNL1        0.2462
     27 O         139.9144  143.4063  163.7898 O.2     1  UNL1       -0.2701
     28 H         143.0019  142.9394  165.3385 H       1  UNL1        0.1502
     29 C         140.4481  142.0089  165.9141 C.ar    1  UNL1        0.0533
     30 C         140.6925  142.4121  167.3380 C.ar    1  UNL1        0.0045
     31 C         140.2358  141.5246  168.4577 C.ar    1  UNL1        0.0001
     32 C         139.5346  140.2339  168.1534 C.ar    1  UNL1        0.0039
     33 C         139.2902  139.8308  166.7295 C.ar    1  UNL1        0.0716
     34 C         139.7469  140.7183  165.6098 C.ar    1  UNL1        0.0084
     35 C         138.5890  138.5401  166.4252 C.3     1  UNL1        0.4186
     36 F         137.8878  137.2495  166.1210 F       1  UNL1       -0.1659
     37 F         139.6014  138.2413  165.3596 F       1  UNL1       -0.1659
     38 F         137.5766  138.8389  167.4909 F       1  UNL1       -0.1659
@<TRIPOS>BOND
     1     1     2    2
     2     2    24    1
     3    24    25    1
     4    25    26   am
     5    26    27    2
     6    26    29    1
     7    29    30   ar
     8    30    31   ar
     9    31    32   ar
    10    32    33   ar
    11    33    35    1
    12    35    36    1
    13    35    37    1
    14    35    38    1
    15    33    34   ar
    16     2     3   am
    17     5     3    1
    18     5     6    1
    19     6     7    1
    20     7     8    1
    21    10     8    1
    22    10    11    1
    23    11    12    1
    24    12    13    1
    25    13    14    1
    26    13    18    1
    27    18    19   ar
    28    19    20   ar
    29    20    21   ar
    30    21    22   ar
    31    22    23   ar
    32    13    15    1
    33    15    16    1
    34     8     9    1
    35    34    29   ar
    36     9     5    1
    37    16    10    1
    38    23    18   ar
    39    25    28    1
    40     3     4    1
    41    14    17    1
@<TRIPOS>MOLECULE
*****
 38 41 0 0 0
SMALL
GASTEIGER

@<TRIPOS>ATOM
      1 O         140.0611  141.0047  158.0581 O.2     1  UNL1       -0.2733
      2 C         138.6990  141.5963  157.8470 C.2     1  UNL1        0.2425
      3 N         138.1853  142.6494  158.7835 N.am    1  UNL1       -0.3032
      4 H         137.2913  143.0376  158.6450 H       1  UNL1        0.1495
      5 C         139.0339  143.1111  159.9311 C.3     1  UNL1        0.0889
      6 C         139.9538  144.2959  159.9267 C.3     1  UNL1        0.0383
      7 C         140.5999  144.3861  161.2774 C.3     1  UNL1        0.0738
      8 N         140.0794  143.2569  162.1166 N.3     1  UNL1       -0.2725
      9 C         139.1116  142.4689  161.2845 C.3     1  UNL1        0.0919
     10 C         140.4600  142.9667  163.5381 C.3     1  UNL1        0.0577
     11 C         141.9024  142.9938  163.9489 C.3     1  UNL1        0.0187
     12 C         142.2829  142.7035  165.3705 C.3     1  UNL1        0.0325
     13 C         141.2211  142.3862  166.3813 C.3     1  UNL1        0.1071
     14 O         142.4420  142.2917  167.2476 O.3     1  UNL1       -0.3827
     15 C         139.7787  142.3591  165.9706 C.3     1  UNL1        0.0325
     16 C         139.3981  142.6494  164.5490 C.3     1  UNL1        0.0187
     17 H         143.2313  142.4780  166.7154 H       1  UNL1        0.2107
     18 C         140.5833  142.0361  167.6931 C.ar    1  UNL1        0.0048
     19 C         139.9845  140.6760  167.8965 C.ar    1  UNL1        0.0186
     20 C         139.3467  140.3258  169.2082 C.ar    1  UNL1        0.0986
     21 N         139.3077  141.3359  170.3165 N.ar    1  UNL1       -0.2423
     22 C         139.9065  142.6961  170.1130 C.ar    1  UNL1        0.0986
     23 C         140.5442  143.0462  168.8013 C.ar    1  UNL1        0.0186
     24 C         137.8504  141.1346  156.6996 C.3     1  UNL1        0.1759
     25 N         136.3568  141.2508  156.7769 N.am    1  UNL1       -0.2931
     26 C         135.4900  140.3217  155.9798 C.2     1  UNL1        0.2462
     27 O         136.1167  139.2763  155.1055 O.2     1  UNL1       -0.2701
     28 H         135.9455  141.9369  157.3508 H       1  UNL1        0.1502
     29 C         133.9965  140.4378  156.0572 C.ar    1  UNL1        0.0533
     30 C         133.2764  141.4356  155.1993 C.ar    1  UNL1        0.0045
     31 C         131.7830  141.5517  155.2767 C.ar    1  UNL1        0.0001
     32 C         131.0096  140.6701  156.2119 C.ar    1  UNL1        0.0039
     33 C         131.7296  139.6724  157.0697 C.ar    1  UNL1        0.0716
     34 C         133.2231  139.5562  156.9924 C.ar    1  UNL1        0.0084
     35 C         130.9562  138.7907  158.0049 C.3     1  UNL1        0.4186
     36 F         130.1828  137.9091  158.9401 F       1  UNL1       -0.1659
     37 F         132.2334  138.1413  158.4489 F       1  UNL1       -0.1659
     38 F         129.6791  139.4402  157.5610 F       1  UNL1       -0.1659
@<TRIPOS>BOND
     1     1     2    2
     2     2    24    1
     3    24    25    1
     4    25    26   am
     5    26    27    2
     6    26    29    1
     7    29    30   ar
     8    30    31   ar
     9    31    32   ar
    10    32    33   ar
    11    33    35    1
    12    35    36    1
    13    35    37    1
    14    35    38    1
    15    33    34   ar
    16     2     3   am
    17     5     3    1
    18     5     6    1
    19     6     7    1
    20     7     8    1
    21    10     8    1
    22    10    11    1
    23    11    12    1
    24    12    13    1
    25    13    14    1
    26    13    18    1
    27    18    19   ar
    28    19    20   ar
    29    20    21   ar
    30    21    22   ar
    31    22    23   ar
    32    13    15    1
    33    15    16    1
    34     8     9    1
    35    34    29   ar
    36     9     5    1
    37    16    10    1
    38    23    18   ar
    39    25    28    1
    40     3     4    1
    41    14    17    1
