@<TRIPOS>MOLECULE
*****
 33 36 0 0 0
SMALL
GASTEIGER

@<TRIPOS>ATOM
      1 C         141.4074  141.9506  165.3176 C.ar    1  UNL1        0.0906
      2 C         141.1376  142.2442  166.7637 C.ar    1  UNL1        0.1496
      3 O         140.0824  143.3082  166.8315 O.2     1  UNL1       -0.4534
      4 C         139.7000  143.6720  165.4274 C.ar    1  UNL1        0.1454
      5 C         138.7120  144.6590  164.8800 C.ar    1  UNL1        0.0406
      6 C         138.5429  144.8068  163.3970 C.ar    1  UNL1        0.0395
      7 C         139.3617  143.9678  162.4613 C.ar    1  UNL1        0.1311
      8 O         139.1926  144.1157  160.9782 O.3     1  UNL1       -0.5058
      9 C         140.3498  142.9809  163.0087 C.ar    1  UNL1        0.0308
     10 C         140.5189  142.8330  164.4918 C.ar    1  UNL1        0.0421
     11 H         138.5754  144.7322  160.6363 H       1  UNL1        0.2922
     12 C         141.8057  141.5890  167.9360 C.ar    1  UNL1        0.0349
     13 C         142.8524  142.3305  168.7135 C.ar    1  UNL1        0.0061
     14 C         143.5205  141.6753  169.8859 C.ar    1  UNL1        0.0367
     15 C         143.1420  140.2786  170.2806 C.ar    1  UNL1        0.1337
     16 O         143.8101  139.6234  171.4529 O.3     1  UNL1       -0.5055
     17 C         142.0953  139.5371  169.5030 C.ar    1  UNL1        0.0367
     18 C         141.4272  140.1923  168.3307 C.ar    1  UNL1        0.0061
     19 H         144.4639  140.0866  171.9386 H       1  UNL1        0.2922
     20 C         142.9074  138.5967  163.8169 C.3     1  UNL1        0.1109
     21 N         141.9221  139.5972  164.3445 N.am    1  UNL1       -0.2991
     22 C         142.3926  140.9501  164.7900 C.2     1  UNL1        0.2490
     23 O         143.8483  141.3024  164.7079 O.2     1  UNL1       -0.2700
     24 H         140.9667  139.3659  164.3984 H       1  UNL1        0.1498
     25 C         141.1687  142.1418  162.0731 C.3     1  UNL1        0.1023
     26 N         140.6177  140.8495  161.5474 N.3     1  UNL1       -0.2668
     27 C         141.4818  139.9492  160.7150 C.3     1  UNL1        0.0725
     28 C         140.9308  138.6569  160.1893 C.3     1  UNL1        0.0199
     29 C         139.5158  138.2649  160.4958 C.3     1  UNL1        0.0321
     30 C         138.6517  139.1652  161.3282 C.3     1  UNL1        0.1265
     31 O         137.2366  138.7733  161.6347 O.3     1  UNL1       -0.3830
     32 C         139.2026  140.4576  161.8540 C.3     1  UNL1        0.1019
     33 H         136.8214  139.4606  162.1789 H       1  UNL1        0.2104
@<TRIPOS>BOND
     1    20    21    1
     2    21    22   am
     3    22    23    2
     4    22     1    1
     5     1     2   ar
     6     2    12    1
     7    12    13   ar
     8    13    14   ar
     9    14    15   ar
    10    15    16    1
    11    15    17   ar
    12    17    18   ar
    13     2     3   ar
    14     3     4   ar
    15     4     5   ar
    16     5     6   ar
    17     6     7   ar
    18     7     8    1
    19     7     9   ar
    20     9    25    1
    21    25    26    1
    22    26    27    1
    23    27    28    1
    24    28    29    1
    25    29    30    1
    26    30    31    1
    27    30    32    1
    28     9    10   ar
    29    10     1   ar
    30    18    12   ar
    31    10     4   ar
    32    32    26    1
    33    21    24    1
    34    16    19    1
    35     8    11    1
    36    31    33    1
@<TRIPOS>MOLECULE
*****
 33 36 0 0 0
SMALL
GASTEIGER

@<TRIPOS>ATOM
      1 C         140.3586  141.6716  165.4292 C.ar    1  UNL1        0.0906
      2 C         140.7511  141.0656  166.7440 C.ar    1  UNL1        0.1496
      3 O         140.3996  139.6079  166.7058 O.2     1  UNL1       -0.4534
      4 C         139.7898  139.3130  165.3674 C.ar    1  UNL1        0.1454
      5 C         139.2544  138.0478  164.7652 C.ar    1  UNL1        0.0406
      6 C         138.6936  138.0582  163.3741 C.ar    1  UNL1        0.0395
      7 C         138.6683  139.3337  162.5851 C.ar    1  UNL1        0.1311
      8 O         138.1075  139.3440  161.1939 O.3     1  UNL1       -0.5058
      9 C         139.2037  140.5988  163.1873 C.ar    1  UNL1        0.0308
     10 C         139.7645  140.5884  164.5785 C.ar    1  UNL1        0.0421
     11 H         137.7730  138.5536  160.8177 H       1  UNL1        0.2922
     12 C         141.3840  141.7901  167.8949 C.ar    1  UNL1        0.0349
     13 C         142.8376  141.5841  168.2027 C.ar    1  UNL1        0.0061
     14 C         143.4705  142.3086  169.3536 C.ar    1  UNL1        0.0367
     15 C         142.6499  143.2390  170.1967 C.ar    1  UNL1        0.1337
     16 O         143.2828  143.9635  171.3476 O.3     1  UNL1       -0.5055
     17 C         141.1963  143.4450  169.8889 C.ar    1  UNL1        0.0367
     18 C         140.5634  142.7205  168.7380 C.ar    1  UNL1        0.0061
     19 H         144.1907  143.8348  171.5399 H       1  UNL1        0.2922
     20 C         141.9793  144.9998  163.9986 C.3     1  UNL1        0.1109
     21 N         141.8079  143.5629  164.3933 N.am    1  UNL1       -0.2991
     22 C         140.5301  143.1085  165.0345 C.2     1  UNL1        0.2490
     23 O         139.4239  144.0912  165.2809 O.2     1  UNL1       -0.2700
     24 H         142.5339  142.9180  164.2316 H       1  UNL1        0.1498
     25 C         139.1784  141.8743  162.3983 C.3     1  UNL1        0.1023
     26 N         140.4088  142.3318  161.6726 N.3     1  UNL1       -0.2668
     27 C         141.5854  141.4113  161.5369 C.3     1  UNL1        0.0725
     28 C         142.8158  141.8689  160.8112 C.3     1  UNL1        0.0199
     29 C         142.8697  143.2469  160.2211 C.3     1  UNL1        0.0321
     30 C         141.6931  144.1674  160.3568 C.3     1  UNL1        0.1265
     31 O         141.7470  145.5454  159.7668 O.3     1  UNL1       -0.3830
     32 C         140.4627  143.7099  161.0826 C.3     1  UNL1        0.1019
     33 H         140.9114  146.0054  159.9429 H       1  UNL1        0.2104
@<TRIPOS>BOND
     1    20    21    1
     2    21    22   am
     3    22    23    2
     4    22     1    1
     5     1     2   ar
     6     2    12    1
     7    12    13   ar
     8    13    14   ar
     9    14    15   ar
    10    15    16    1
    11    15    17   ar
    12    17    18   ar
    13     2     3   ar
    14     3     4   ar
    15     4     5   ar
    16     5     6   ar
    17     6     7   ar
    18     7     8    1
    19     7     9   ar
    20     9    25    1
    21    25    26    1
    22    26    27    1
    23    27    28    1
    24    28    29    1
    25    29    30    1
    26    30    31    1
    27    30    32    1
    28     9    10   ar
    29    10     1   ar
    30    18    12   ar
    31    10     4   ar
    32    32    26    1
    33    21    24    1
    34    16    19    1
    35     8    11    1
    36    31    33    1
@<TRIPOS>MOLECULE
*****
 33 36 0 0 0
SMALL
GASTEIGER

@<TRIPOS>ATOM
      1 C         141.4293  140.8738  165.4976 C.ar    1  UNL1        0.0906
      2 C         141.0876  140.7371  166.9517 C.ar    1  UNL1        0.1496
      3 O         140.0917  139.6241  167.0912 O.2     1  UNL1       -0.4534
      4 C         139.8179  139.0730  165.7232 C.ar    1  UNL1        0.1454
      5 C         138.9226  137.9676  165.2472 C.ar    1  UNL1        0.0406
      6 C         138.8540  137.6347  163.7863 C.ar    1  UNL1        0.0395
      7 C         139.6807  138.4071  162.8014 C.ar    1  UNL1        0.1311
      8 O         139.6121  138.0740  161.3404 O.3     1  UNL1       -0.5058
      9 C         140.5760  139.5124  163.2774 C.ar    1  UNL1        0.0308
     10 C         140.6446  139.8454  164.7383 C.ar    1  UNL1        0.0421
     11 H         139.0528  137.3835  161.0430 H       1  UNL1        0.2922
     12 C         141.6441  141.5675  168.0701 C.ar    1  UNL1        0.0349
     13 C         143.0660  141.3786  168.5088 C.ar    1  UNL1        0.0061
     14 C         143.6225  142.2090  169.6271 C.ar    1  UNL1        0.0367
     15 C         142.7572  143.2284  170.3068 C.ar    1  UNL1        0.1337
     16 O         143.3137  144.0589  171.4251 O.3     1  UNL1       -0.5055
     17 C         141.3353  143.4174  169.8681 C.ar    1  UNL1        0.0367
     18 C         140.7788  142.5869  168.7497 C.ar    1  UNL1        0.0061
     19 H         144.2019  143.9408  171.6991 H       1  UNL1        0.2922
     20 C         142.8718  144.2321  163.9512 C.3     1  UNL1        0.1109
     21 N         141.9136  143.2409  164.5423 N.am    1  UNL1       -0.2991
     22 C         142.3875  141.8650  164.9064 C.2     1  UNL1        0.2490
     23 O         143.8194  141.4805  164.6794 O.2     1  UNL1       -0.2700
     24 H         140.9738  143.4934  164.6913 H       1  UNL1        0.1498
     25 C         141.4026  140.2848  162.2925 C.3     1  UNL1        0.1023
     26 N         140.9196  141.6110  161.7849 N.3     1  UNL1       -0.2668
     27 C         141.8186  142.4627  160.9383 C.3     1  UNL1        0.0725
     28 C         141.3355  143.7890  160.4307 C.3     1  UNL1        0.0199
     29 C         139.9536  144.2636  160.7697 C.3     1  UNL1        0.0321
     30 C         139.0546  143.4120  161.6162 C.3     1  UNL1        0.1265
     31 O         137.6727  143.8867  161.9551 O.3     1  UNL1       -0.3830
     32 C         139.5376  142.0857  162.1238 C.3     1  UNL1        0.1019
     33 H         137.2284  143.2224  162.5049 H       1  UNL1        0.2104
@<TRIPOS>BOND
     1    20    21    1
     2    21    22   am
     3    22    23    2
     4    22     1    1
     5     1     2   ar
     6     2    12    1
     7    12    13   ar
     8    13    14   ar
     9    14    15   ar
    10    15    16    1
    11    15    17   ar
    12    17    18   ar
    13     2     3   ar
    14     3     4   ar
    15     4     5   ar
    16     5     6   ar
    17     6     7   ar
    18     7     8    1
    19     7     9   ar
    20     9    25    1
    21    25    26    1
    22    26    27    1
    23    27    28    1
    24    28    29    1
    25    29    30    1
    26    30    31    1
    27    30    32    1
    28     9    10   ar
    29    10     1   ar
    30    18    12   ar
    31    10     4   ar
    32    32    26    1
    33    21    24    1
    34    16    19    1
    35     8    11    1
    36    31    33    1
@<TRIPOS>MOLECULE
*****
 33 36 0 0 0
SMALL
GASTEIGER

@<TRIPOS>ATOM
      1 C         140.9105  140.4462  165.1957 C.ar    1  UNL1        0.0906
      2 C         140.3339  139.5793  166.2756 C.ar    1  UNL1        0.1496
      3 O         139.6377  138.4237  165.6199 O.2     1  UNL1       -0.4534
      4 C         139.7840  138.5764  164.1348 C.ar    1  UNL1        0.1454
      5 C         139.3025  137.7388  162.9875 C.ar    1  UNL1        0.0406
      6 C         139.6078  138.1512  161.5779 C.ar    1  UNL1        0.0395
      7 C         140.3944  139.4011  161.3158 C.ar    1  UNL1        0.1311
      8 O         140.6996  139.8135  159.9062 O.3     1  UNL1       -0.5058
      9 C         140.8759  140.2388  162.4632 C.ar    1  UNL1        0.0308
     10 C         140.5707  139.8264  163.8727 C.ar    1  UNL1        0.0421
     11 H         140.3989  139.2902  159.1895 H       1  UNL1        0.2922
     12 C         140.4356  139.8248  167.7518 C.ar    1  UNL1        0.0349
     13 C         141.7642  139.7185  168.4400 C.ar    1  UNL1        0.0061
     14 C         141.8659  139.9641  169.9163 C.ar    1  UNL1        0.0367
     15 C         140.6391  140.3159  170.7043 C.ar    1  UNL1        0.1337
     16 O         140.7409  140.5615  172.1806 O.3     1  UNL1       -0.5055
     17 C         139.3106  140.4222  170.0162 C.ar    1  UNL1        0.0367
     18 C         139.2088  140.1767  168.5399 C.ar    1  UNL1        0.0061
     19 H         141.5708  140.4951  172.6105 H       1  UNL1        0.2922
     20 C         143.9687  142.9496  165.5577 C.3     1  UNL1        0.1109
     21 N         143.1891  141.6849  165.3508 N.am    1  UNL1       -0.2991
     22 C         141.6901  141.7109  165.4026 C.2     1  UNL1        0.2490
     23 O         140.9709  143.0015  165.6613 O.2     1  UNL1       -0.2700
     24 H         143.6612  140.8378  165.1811 H       1  UNL1        0.1498
     25 C         141.6625  141.4888  162.2011 C.3     1  UNL1        0.1023
     26 N         141.0028  142.8301  162.3255 N.3     1  UNL1       -0.2668
     27 C         141.8389  144.0735  162.3962 C.3     1  UNL1        0.0725
     28 C         141.1791  145.4148  162.5206 C.3     1  UNL1        0.0199
     29 C         139.6833  145.5128  162.5744 C.3     1  UNL1        0.0321
     30 C         138.8472  144.2695  162.5037 C.3     1  UNL1        0.1265
     31 O         137.3514  144.3675  162.5575 O.3     1  UNL1       -0.3830
     32 C         139.5070  142.9281  162.3793 C.3     1  UNL1        0.1019
     33 H         136.9669  143.4788  162.5004 H       1  UNL1        0.2104
@<TRIPOS>BOND
     1    20    21    1
     2    21    22   am
     3    22    23    2
     4    22     1    1
     5     1     2   ar
     6     2    12    1
     7    12    13   ar
     8    13    14   ar
     9    14    15   ar
    10    15    16    1
    11    15    17   ar
    12    17    18   ar
    13     2     3   ar
    14     3     4   ar
    15     4     5   ar
    16     5     6   ar
    17     6     7   ar
    18     7     8    1
    19     7     9   ar
    20     9    25    1
    21    25    26    1
    22    26    27    1
    23    27    28    1
    24    28    29    1
    25    29    30    1
    26    30    31    1
    27    30    32    1
    28     9    10   ar
    29    10     1   ar
    30    18    12   ar
    31    10     4   ar
    32    32    26    1
    33    21    24    1
    34    16    19    1
    35     8    11    1
    36    31    33    1
@<TRIPOS>MOLECULE
*****
 33 36 0 0 0
SMALL
GASTEIGER

@<TRIPOS>ATOM
      1 C         140.8017  141.5030  165.3872 C.ar    1  UNL1        0.0906
      2 C         140.8149  142.0448  166.7858 C.ar    1  UNL1        0.1496
      3 O         139.9465  143.2674  166.8175 O.2     1  UNL1       -0.4534
      4 C         139.3965  143.4812  165.4384 C.ar    1  UNL1        0.1454
      5 C         138.4827  144.5280  164.8735 C.ar    1  UNL1        0.0406
      6 C         138.0975  144.4843  163.4245 C.ar    1  UNL1        0.0395
      7 C         138.6260  143.3938  162.5404 C.ar    1  UNL1        0.1311
      8 O         138.2408  143.3501  161.0914 O.3     1  UNL1       -0.5058
      9 C         139.5398  142.3470  163.1054 C.ar    1  UNL1        0.0308
     10 C         139.9250  142.3907  164.5544 C.ar    1  UNL1        0.0421
     11 H         137.6700  144.0040  160.7385 H       1  UNL1        0.2922
     12 C         141.5649  141.4656  167.9486 C.ar    1  UNL1        0.0349
     13 C         142.6976  142.2306  168.5666 C.ar    1  UNL1        0.0061
     14 C         143.4476  141.6515  169.7294 C.ar    1  UNL1        0.0367
     15 C         143.0649  140.3074  170.2742 C.ar    1  UNL1        0.1337
     16 O         143.8149  139.7283  171.4370 O.3     1  UNL1       -0.5055
     17 C         141.9323  139.5424  169.6563 C.ar    1  UNL1        0.0367
     18 C         141.1823  140.1216  168.4935 C.ar    1  UNL1        0.0061
     19 H         144.5225  140.2061  171.8230 H       1  UNL1        0.2922
     20 C         143.6673  139.1997  163.8928 C.3     1  UNL1        0.1109
     21 N         142.9329  140.4158  164.3742 N.am    1  UNL1       -0.2991
     22 C         141.5361  140.2869  164.9057 C.2     1  UNL1        0.2490
     23 O         140.8738  138.9420  164.9557 O.2     1  UNL1       -0.2700
     24 H         143.3676  141.2985  164.3414 H       1  UNL1        0.1498
     25 C         140.0683  141.2565  162.2214 C.3     1  UNL1        0.1023
     26 N         141.4139  141.4014  161.5745 N.3     1  UNL1       -0.2668
     27 C         142.1575  142.7004  161.6732 C.3     1  UNL1        0.0725
     28 C         143.5031  142.8453  161.0263 C.3     1  UNL1        0.0199
     29 C         144.1050  141.6912  160.2808 C.3     1  UNL1        0.0321
     30 C         143.3615  140.3923  160.1822 C.3     1  UNL1        0.1265
     31 O         143.9634  139.2382  159.4367 O.3     1  UNL1       -0.3830
     32 C         142.0159  140.2473  160.8291 C.3     1  UNL1        0.1019
     33 H         143.3578  138.4812  159.4690 H       1  UNL1        0.2104
@<TRIPOS>BOND
     1    20    21    1
     2    21    22   am
     3    22    23    2
     4    22     1    1
     5     1     2   ar
     6     2    12    1
     7    12    13   ar
     8    13    14   ar
     9    14    15   ar
    10    15    16    1
    11    15    17   ar
    12    17    18   ar
    13     2     3   ar
    14     3     4   ar
    15     4     5   ar
    16     5     6   ar
    17     6     7   ar
    18     7     8    1
    19     7     9   ar
    20     9    25    1
    21    25    26    1
    22    26    27    1
    23    27    28    1
    24    28    29    1
    25    29    30    1
    26    30    31    1
    27    30    32    1
    28     9    10   ar
    29    10     1   ar
    30    18    12   ar
    31    10     4   ar
    32    32    26    1
    33    21    24    1
    34    16    19    1
    35     8    11    1
    36    31    33    1
@<TRIPOS>MOLECULE
*****
 33 36 0 0 0
SMALL
GASTEIGER

@<TRIPOS>ATOM
      1 C         141.7134  142.2941  165.3488 C.ar    1  UNL1        0.0906
      2 C         141.2219  142.3217  166.7657 C.ar    1  UNL1        0.1496
      3 O         139.9606  143.1327  166.8031 O.2     1  UNL1       -0.4534
      4 C         139.6726  143.6064  165.4092 C.ar    1  UNL1        0.1454
      5 C         138.5640  144.4427  164.8424 C.ar    1  UNL1        0.0406
      6 C         138.5386  144.7607  163.3767 C.ar    1  UNL1        0.0395
      7 C         139.6218  144.2423  162.4779 C.ar    1  UNL1        0.1311
      8 O         139.5964  144.5603  161.0122 O.3     1  UNL1       -0.5058
      9 C         140.7305  143.4060  163.0448 C.ar    1  UNL1        0.0308
     10 C         140.7559  143.0881  164.5104 C.ar    1  UNL1        0.0421
     11 H         138.9038  145.0828  160.6581 H       1  UNL1        0.2922
     12 C         141.8767  141.6552  167.9392 C.ar    1  UNL1        0.0349
     13 C         141.5311  140.2373  168.2854 C.ar    1  UNL1        0.0061
     14 C         142.1859  139.5708  169.4589 C.ar    1  UNL1        0.0367
     15 C         143.1862  140.3224  170.2862 C.ar    1  UNL1        0.1337
     16 O         143.8410  139.6559  171.4598 O.3     1  UNL1       -0.5055
     17 C         143.5317  141.7403  169.9401 C.ar    1  UNL1        0.0367
     18 C         142.8770  142.4068  168.7666 C.ar    1  UNL1        0.0061
     19 H         143.6251  138.7701  171.6760 H       1  UNL1        0.2922
     20 C         144.0942  139.4792  163.8796 C.3     1  UNL1        0.1109
     21 N         142.8616  140.1781  164.3718 N.am    1  UNL1       -0.2991
     22 C         142.9460  141.5952  164.8566 C.2     1  UNL1        0.2490
     23 O         144.2629  142.3131  164.8492 O.2     1  UNL1       -0.2700
     24 H         141.9973  139.7068  164.3766 H       1  UNL1        0.1498
     25 C         141.8138  142.8877  162.1460 C.3     1  UNL1        0.1023
     26 N         141.7094  141.5094  161.5634 N.3     1  UNL1       -0.2668
     27 C         140.4768  140.6874  161.7979 C.3     1  UNL1        0.0725
     28 C         140.3725  139.3091  161.2153 C.3     1  UNL1        0.0199
     29 C         141.5007  138.7528  160.3982 C.3     1  UNL1        0.0321
     30 C         142.7333  139.5748  160.1637 C.3     1  UNL1        0.1265
     31 O         143.8615  139.0185  159.3466 O.3     1  UNL1       -0.3830
     32 C         142.8377  140.9531  160.7463 C.3     1  UNL1        0.1019
     33 H         144.5753  139.6731  159.2930 H       1  UNL1        0.2104
@<TRIPOS>BOND
     1    20    21    1
     2    21    22   am
     3    22    23    2
     4    22     1    1
     5     1     2   ar
     6     2    12    1
     7    12    13   ar
     8    13    14   ar
     9    14    15   ar
    10    15    16    1
    11    15    17   ar
    12    17    18   ar
    13     2     3   ar
    14     3     4   ar
    15     4     5   ar
    16     5     6   ar
    17     6     7   ar
    18     7     8    1
    19     7     9   ar
    20     9    25    1
    21    25    26    1
    22    26    27    1
    23    27    28    1
    24    28    29    1
    25    29    30    1
    26    30    31    1
    27    30    32    1
    28     9    10   ar
    29    10     1   ar
    30    18    12   ar
    31    10     4   ar
    32    32    26    1
    33    21    24    1
    34    16    19    1
    35     8    11    1
    36    31    33    1
@<TRIPOS>MOLECULE
*****
 33 36 0 0 0
SMALL
GASTEIGER

@<TRIPOS>ATOM
      1 C         141.4090  141.9840  165.3748 C.ar    1  UNL1        0.0906
      2 C         142.3027  142.0391  166.5783 C.ar    1  UNL1        0.1496
      3 O         143.6571  142.5015  166.1291 O.2     1  UNL1       -0.4534
      4 C         143.6005  142.7322  164.6480 C.ar    1  UNL1        0.1454
      5 C         144.6346  143.1922  163.6636 C.ar    1  UNL1        0.0406
      6 C         144.2793  143.3324  162.2131 C.ar    1  UNL1        0.0395
      7 C         142.8899  143.0125  161.7469 C.ar    1  UNL1        0.1311
      8 O         142.5346  143.1527  160.2963 O.3     1  UNL1       -0.5058
      9 C         141.8558  142.5525  162.7313 C.ar    1  UNL1        0.0308
     10 C         142.2111  142.4124  164.1818 C.ar    1  UNL1        0.0421
     11 H         143.1806  143.4401  159.6814 H       1  UNL1        0.2922
     12 C         141.9108  141.6926  167.9841 C.ar    1  UNL1        0.0349
     13 C         142.4154  140.4280  168.6133 C.ar    1  UNL1        0.0061
     14 C         142.0235  140.0815  170.0191 C.ar    1  UNL1        0.0367
     15 C         141.1269  140.9996  170.7957 C.ar    1  UNL1        0.1337
     16 O         140.7350  140.6531  172.2015 O.3     1  UNL1       -0.5055
     17 C         140.6222  142.2642  170.1665 C.ar    1  UNL1        0.0367
     18 C         141.0142  142.6107  168.7607 C.ar    1  UNL1        0.0061
     19 H         141.0503  139.8631  172.5946 H       1  UNL1        0.2922
     20 C         138.1582  139.7077  165.4122 C.3     1  UNL1        0.1109
     21 N         139.6007  140.1190  165.4212 N.am    1  UNL1       -0.2991
     22 C         139.9665  141.5727  165.3658 C.2     1  UNL1        0.2490
     23 O         138.8898  142.6150  165.3015 O.2     1  UNL1       -0.2700
     24 H         140.3074  139.4348  165.4634 H       1  UNL1        0.1498
     25 C         140.4664  142.2327  162.2651 C.3     1  UNL1        0.1023
     26 N         140.0407  140.8038  162.1009 N.3     1  UNL1       -0.2668
     27 C         138.5925  140.4716  161.8951 C.3     1  UNL1        0.0725
     28 C         138.1668  139.0427  161.7309 C.3     1  UNL1        0.0199
     29 C         139.1893  137.9460  161.7724 C.3     1  UNL1        0.0321
     30 C         140.6375  138.2781  161.9782 C.3     1  UNL1        0.1265
     31 O         141.6600  137.1814  162.0198 O.3     1  UNL1       -0.3830
     32 C         141.0632  139.7071  162.1424 C.3     1  UNL1        0.1019
     33 H         142.5400  137.5649  162.1590 H       1  UNL1        0.2104
@<TRIPOS>BOND
     1    20    21    1
     2    21    22   am
     3    22    23    2
     4    22     1    1
     5     1     2   ar
     6     2    12    1
     7    12    13   ar
     8    13    14   ar
     9    14    15   ar
    10    15    16    1
    11    15    17   ar
    12    17    18   ar
    13     2     3   ar
    14     3     4   ar
    15     4     5   ar
    16     5     6   ar
    17     6     7   ar
    18     7     8    1
    19     7     9   ar
    20     9    25    1
    21    25    26    1
    22    26    27    1
    23    27    28    1
    24    28    29    1
    25    29    30    1
    26    30    31    1
    27    30    32    1
    28     9    10   ar
    29    10     1   ar
    30    18    12   ar
    31    10     4   ar
    32    32    26    1
    33    21    24    1
    34    16    19    1
    35     8    11    1
    36    31    33    1
@<TRIPOS>MOLECULE
*****
 33 36 0 0 0
SMALL
GASTEIGER

@<TRIPOS>ATOM
      1 C         140.9202  141.1800  165.3799 C.ar    1  UNL1        0.0906
      2 C         140.8809  140.8176  166.8350 C.ar    1  UNL1        0.1496
      3 O         140.1470  139.5162  166.9688 O.2     1  UNL1       -0.4534
      4 C         139.7329  139.0743  165.5965 C.ar    1  UNL1        0.1454
      5 C         138.9823  137.8685  165.1142 C.ar    1  UNL1        0.0406
      6 C         138.7097  137.6909  163.6500 C.ar    1  UNL1        0.0395
      7 C         139.1876  138.7192  162.6680 C.ar    1  UNL1        0.1311
      8 O         138.9149  138.5416  161.2036 O.3     1  UNL1       -0.5058
      9 C         139.9381  139.9250  163.1503 C.ar    1  UNL1        0.0308
     10 C         140.2107  140.1026  164.6145 C.ar    1  UNL1        0.0421
     11 H         138.4461  137.7883  160.9024 H       1  UNL1        0.2922
     12 C         141.4716  141.6163  167.9588 C.ar    1  UNL1        0.0349
     13 C         140.6232  142.6035  168.7042 C.ar    1  UNL1        0.0061
     14 C         141.2139  143.4022  169.8281 C.ar    1  UNL1        0.0367
     15 C         142.6531  143.2138  170.2066 C.ar    1  UNL1        0.1337
     16 O         143.2438  144.0125  171.3304 O.3     1  UNL1       -0.5055
     17 C         143.5015  142.2266  169.4612 C.ar    1  UNL1        0.0367
     18 C         142.9107  141.4279  168.3373 C.ar    1  UNL1        0.0061
     19 H         142.7138  144.6292  171.7960 H       1  UNL1        0.2922
     20 C         141.3841  144.8771  164.0138 C.3     1  UNL1        0.1109
     21 N         140.7471  143.6524  164.6005 N.am    1  UNL1       -0.2991
     22 C         141.5573  142.4047  164.7933 C.2     1  UNL1        0.2490
     23 O         143.0044  142.3820  164.3995 O.2     1  UNL1       -0.2700
     24 H         139.7972  143.6674  164.8590 H       1  UNL1        0.1498
     25 C         140.4160  140.9533  162.1683 C.3     1  UNL1        0.1023
     26 N         141.4620  140.5937  161.1551 N.3     1  UNL1       -0.2668
     27 C         141.3810  141.1491  159.7640 C.3     1  UNL1        0.0725
     28 C         142.4271  140.7895  158.7509 C.3     1  UNL1        0.0199
     29 C         143.5540  139.8745  159.1287 C.3     1  UNL1        0.0321
     30 C         143.6350  139.3192  160.5198 C.3     1  UNL1        0.1265
     31 O         144.7620  138.4043  160.8976 O.3     1  UNL1       -0.3830
     32 C         142.5890  139.6788  161.5330 C.3     1  UNL1        0.1019
     33 H         144.6653  138.1381  161.8254 H       1  UNL1        0.2104
@<TRIPOS>BOND
     1    20    21    1
     2    21    22   am
     3    22    23    2
     4    22     1    1
     5     1     2   ar
     6     2    12    1
     7    12    13   ar
     8    13    14   ar
     9    14    15   ar
    10    15    16    1
    11    15    17   ar
    12    17    18   ar
    13     2     3   ar
    14     3     4   ar
    15     4     5   ar
    16     5     6   ar
    17     6     7   ar
    18     7     8    1
    19     7     9   ar
    20     9    25    1
    21    25    26    1
    22    26    27    1
    23    27    28    1
    24    28    29    1
    25    29    30    1
    26    30    31    1
    27    30    32    1
    28     9    10   ar
    29    10     1   ar
    30    18    12   ar
    31    10     4   ar
    32    32    26    1
    33    21    24    1
    34    16    19    1
    35     8    11    1
    36    31    33    1
@<TRIPOS>MOLECULE
*****
 33 36 0 0 0
SMALL
GASTEIGER

@<TRIPOS>ATOM
      1 C         141.4439  142.8705  165.1774 C.ar    1  UNL1        0.0906
      2 C         140.3484  142.9611  166.1980 C.ar    1  UNL1        0.1496
      3 O         139.2937  143.8849  165.6651 O.2     1  UNL1       -0.4534
      4 C         139.7372  144.3652  164.3150 C.ar    1  UNL1        0.1454
      5 C         139.1027  145.2924  163.3212 C.ar    1  UNL1        0.0406
      6 C         139.7971  145.5926  162.0260 C.ar    1  UNL1        0.0395
      7 C         141.1260  144.9656  161.7246 C.ar    1  UNL1        0.1311
      8 O         141.8205  145.2659  160.4293 O.3     1  UNL1       -0.5058
      9 C         141.7606  144.0384  162.7184 C.ar    1  UNL1        0.0308
     10 C         141.0661  143.7382  164.0136 C.ar    1  UNL1        0.0421
     11 H         141.4241  145.8451  159.8085 H       1  UNL1        0.2922
     12 C         140.3138  142.2525  167.5196 C.ar    1  UNL1        0.0349
     13 C         140.5896  143.0102  168.7844 C.ar    1  UNL1        0.0061
     14 C         140.5550  142.3015  170.1060 C.ar    1  UNL1        0.0367
     15 C         140.2447  140.8351  170.1628 C.ar    1  UNL1        0.1337
     16 O         140.2101  140.1265  171.4844 O.3     1  UNL1       -0.5055
     17 C         139.9689  140.0774  168.8980 C.ar    1  UNL1        0.0367
     18 C         140.0035  140.7861  167.5764 C.ar    1  UNL1        0.0061
     19 H         140.3823  140.5998  172.2745 H       1  UNL1        0.2922
     20 C         143.9770  139.8262  164.9197 C.3     1  UNL1        0.1109
     21 N         142.7238  140.6415  164.7980 N.am    1  UNL1       -0.2991
     22 C         142.6971  142.0552  165.2991 C.2     1  UNL1        0.2490
     23 O         143.9235  142.6534  165.9218 O.2     1  UNL1       -0.2700
     24 H         141.9188  140.2488  164.3892 H       1  UNL1        0.1498
     25 C         143.0895  143.4114  162.4170 C.3     1  UNL1        0.1023
     26 N         143.2214  142.4444  161.2779 N.3     1  UNL1       -0.2668
     27 C         142.4175  141.1780  161.2722 C.3     1  UNL1        0.0725
     28 C         142.5495  140.2110  160.1332 C.3     1  UNL1        0.0199
     29 C         143.4853  140.5104  158.9998 C.3     1  UNL1        0.0321
     30 C         144.2892  141.7767  159.0054 C.3     1  UNL1        0.1265
     31 O         145.2250  142.0761  157.8720 O.3     1  UNL1       -0.3830
     32 C         144.1573  142.7438  160.1445 C.3     1  UNL1        0.1019
     33 H         145.6633  142.9268  158.0307 H       1  UNL1        0.2104
@<TRIPOS>BOND
     1    20    21    1
     2    21    22   am
     3    22    23    2
     4    22     1    1
     5     1     2   ar
     6     2    12    1
     7    12    13   ar
     8    13    14   ar
     9    14    15   ar
    10    15    16    1
    11    15    17   ar
    12    17    18   ar
    13     2     3   ar
    14     3     4   ar
    15     4     5   ar
    16     5     6   ar
    17     6     7   ar
    18     7     8    1
    19     7     9   ar
    20     9    25    1
    21    25    26    1
    22    26    27    1
    23    27    28    1
    24    28    29    1
    25    29    30    1
    26    30    31    1
    27    30    32    1
    28     9    10   ar
    29    10     1   ar
    30    18    12   ar
    31    10     4   ar
    32    32    26    1
    33    21    24    1
    34    16    19    1
    35     8    11    1
    36    31    33    1
