@<TRIPOS>MOLECULE
*****
 26 29 0 0 0
SMALL
GASTEIGER

@<TRIPOS>ATOM
      1 C         138.4387  139.0461  166.0819 C.2     1  UNL1        0.2686
      2 O         137.3798  138.3656  166.8978 O.2     1  UNL1       -0.2682
      3 N         139.5161  139.8379  166.7617 N.am    1  UNL1       -0.2707
      4 C         137.6661  140.1383  160.9739 C.3     1  UNL1        0.1321
      5 N         138.0651  139.4367  162.2382 N.ar    1  UNL1       -0.3057
      6 C         138.7186  138.0896  162.3306 C.ar    1  UNL1        0.1787
      7 N         138.9380  137.7793  163.7816 N.ar    1  UNL1       -0.2192
      8 C         138.4203  138.9346  164.5861 C.ar    1  UNL1        0.1535
      9 C         137.8807  139.9589  163.6323 C.ar    1  UNL1        0.1012
     10 C         139.5346  139.9494  168.2574 C.3     1  UNL1        0.1205
     11 C         140.4729  140.9097  168.9264 C.ar    1  UNL1       -0.0013
     12 C         141.8604  140.4716  169.2909 C.ar    1  UNL1       -0.0003
     13 C         142.7986  141.4318  169.9598 C.ar    1  UNL1        0.0302
     14 C         142.3494  142.8302  170.2644 C.ar    1  UNL1        0.1506
     15 F         143.2877  143.7905  170.9334 F       1  UNL1       -0.2033
     16 C         140.9619  143.2683  169.9000 C.ar    1  UNL1        0.0848
     17 CL        140.5126  144.6667  170.2045 Cl      1  UNL1       -0.0799
     18 C         140.0236  142.3081  169.2310 C.ar    1  UNL1        0.0111
     19 C         140.5750  140.5184  165.9458 C.3     1  UNL1        0.0941
     20 C         140.3605  141.9205  165.4578 C.3     1  UNL1        0.0226
     21 C         140.8510  143.1254  164.7112 C.3     1  UNL1        0.0188
     22 C         141.0650  144.4532  164.0469 C.3     1  UNL1        0.0686
     23 N         139.8445  145.2923  164.2843 N.3     1  UNL1       -0.2975
     24 C         138.8762  144.4831  165.0954 C.3     1  UNL1        0.0686
     25 C         139.4983  143.1439  165.3592 C.3     1  UNL1        0.0188
     26 H         139.4207  145.5470  163.3922 H       1  UNL1        0.1232
@<TRIPOS>BOND
     1     4     5    1
     2     5     6   ar
     3     6     7   ar
     4     7     8   ar
     5     8     1    1
     6     1     2    2
     7     1     3   am
     8     3    10    1
     9    10    11    1
    10    11    12   ar
    11    12    13   ar
    12    13    14   ar
    13    14    15    1
    14    14    16   ar
    15    16    17    1
    16    16    18   ar
    17     3    19    1
    18    20    19    1
    19    20    21    1
    20    21    22    1
    21    22    23    1
    22    23    24    1
    23    25    24    1
    24     8     9   ar
    25     9     5   ar
    26    18    11   ar
    27    25    20    1
    28    25    21    1
    29    23    26    1
@<TRIPOS>MOLECULE
*****
 26 29 0 0 0
SMALL
GASTEIGER

@<TRIPOS>ATOM
      1 C         139.5773  140.0997  168.3953 C.2     1  UNL1        0.2686
      2 O         138.4280  139.4784  169.1322 O.2     1  UNL1       -0.2682
      3 N         139.5329  140.2202  166.9008 N.am    1  UNL1       -0.2707
      4 C         143.0297  143.3071  170.7775 C.3     1  UNL1        0.1321
      5 N         142.3580  142.0749  170.2479 N.ar    1  UNL1       -0.3057
      6 C         142.8585  140.6679  170.3895 C.ar    1  UNL1        0.1787
      7 N         141.8777  139.7568  169.7128 N.ar    1  UNL1       -0.2192
      8 C         140.7712  140.6006  169.1529 C.ar    1  UNL1        0.1535
      9 C         141.0680  142.0333  169.4835 C.ar    1  UNL1        0.1012
     10 C         138.3391  139.7193  166.1432 C.3     1  UNL1        0.1205
     11 C         138.4921  139.2525  164.7258 C.ar    1  UNL1       -0.0013
     12 C         139.1439  137.9327  164.4371 C.ar    1  UNL1       -0.0003
     13 C         139.2968  137.4660  163.0198 C.ar    1  UNL1        0.0302
     14 C         138.7979  138.3189  161.8913 C.ar    1  UNL1        0.1506
     15 F         138.9508  137.8521  160.4740 F       1  UNL1       -0.2033
     16 C         138.1461  139.6387  162.1800 C.ar    1  UNL1        0.0848
     17 CL        137.6472  140.4916  161.0515 Cl      1  UNL1       -0.0799
     18 C         137.9932  140.1054  163.5973 C.ar    1  UNL1        0.0111
     19 C         140.6823  140.8415  166.1639 C.3     1  UNL1        0.0941
     20 C         140.5248  142.1919  165.5303 C.3     1  UNL1        0.0226
     21 C         139.6844  143.3993  165.2372 C.3     1  UNL1        0.0188
     22 C         139.0995  144.7071  164.7926 C.3     1  UNL1        0.0686
     23 N         140.1461  145.4396  164.0064 N.3     1  UNL1       -0.2975
     24 C         141.3779  144.5845  163.9651 C.3     1  UNL1        0.0686
     25 C         141.0925  143.3235  164.7258 C.3     1  UNL1        0.0188
     26 H         140.3577  146.3298  164.4571 H       1  UNL1        0.1232
@<TRIPOS>BOND
     1     4     5    1
     2     5     6   ar
     3     6     7   ar
     4     7     8   ar
     5     8     1    1
     6     1     2    2
     7     1     3   am
     8     3    10    1
     9    10    11    1
    10    11    12   ar
    11    12    13   ar
    12    13    14   ar
    13    14    15    1
    14    14    16   ar
    15    16    17    1
    16    16    18   ar
    17     3    19    1
    18    20    19    1
    19    20    21    1
    20    21    22    1
    21    22    23    1
    22    23    24    1
    23    25    24    1
    24     8     9   ar
    25     9     5   ar
    26    18    11   ar
    27    25    20    1
    28    25    21    1
    29    23    26    1
@<TRIPOS>MOLECULE
*****
 26 29 0 0 0
SMALL
GASTEIGER

@<TRIPOS>ATOM
      1 C         143.0186  138.9227  165.4927 C.2     1  UNL1        0.2686
      2 O         143.9003  138.0291  166.3138 O.2     1  UNL1       -0.2682
      3 N         142.5491  140.2328  166.0523 N.am    1  UNL1       -0.2707
      4 C         143.0630  138.0659  160.2826 C.3     1  UNL1        0.1321
      5 N         142.6269  138.1123  161.7170 N.ar    1  UNL1       -0.3057
      6 C         141.3176  137.6180  162.2570 C.ar    1  UNL1        0.1787
      7 N         141.3050  137.8614  163.7370 N.ar    1  UNL1       -0.2192
      8 C         142.6064  138.5061  164.1119 C.ar    1  UNL1        0.1535
      9 C         143.4235  138.6612  162.8635 C.ar    1  UNL1        0.1012
     10 C         142.9613  140.6494  167.4331 C.3     1  UNL1        0.1205
     11 C         141.9599  141.2758  168.3578 C.ar    1  UNL1       -0.0013
     12 C         142.1832  142.6662  168.8743 C.ar    1  UNL1       -0.0003
     13 C         141.1819  143.2925  169.7990 C.ar    1  UNL1        0.0302
     14 C         139.9573  142.5284  170.2071 C.ar    1  UNL1        0.1506
     15 F         138.9559  143.1548  171.1318 F       1  UNL1       -0.2033
     16 C         139.7340  141.1380  169.6906 C.ar    1  UNL1        0.0848
     17 CL        138.5094  140.3739  170.0987 Cl      1  UNL1       -0.0799
     18 C         140.7353  140.5117  168.7659 C.ar    1  UNL1        0.0111
     19 C         141.6675  141.1263  165.2311 C.3     1  UNL1        0.0941
     20 C         142.2508  142.3183  164.5319 C.3     1  UNL1        0.0226
     21 C         143.3282  142.9296  163.6861 C.3     1  UNL1        0.0188
     22 C         144.2367  143.8030  162.8726 C.3     1  UNL1        0.0686
     23 N         143.6536  145.1849  162.8504 N.3     1  UNL1       -0.2975
     24 C         142.3846  145.1655  163.6502 C.3     1  UNL1        0.0686
     25 C         142.1836  143.7716  164.1667 C.3     1  UNL1        0.0188
     26 H         143.4526  145.4603  161.8891 H       1  UNL1        0.1232
@<TRIPOS>BOND
     1     4     5    1
     2     5     6   ar
     3     6     7   ar
     4     7     8   ar
     5     8     1    1
     6     1     2    2
     7     1     3   am
     8     3    10    1
     9    10    11    1
    10    11    12   ar
    11    12    13   ar
    12    13    14   ar
    13    14    15    1
    14    14    16   ar
    15    16    17    1
    16    16    18   ar
    17     3    19    1
    18    20    19    1
    19    20    21    1
    20    21    22    1
    21    22    23    1
    22    23    24    1
    23    25    24    1
    24     8     9   ar
    25     9     5   ar
    26    18    11   ar
    27    25    20    1
    28    25    21    1
    29    23    26    1
@<TRIPOS>MOLECULE
*****
 26 29 0 0 0
SMALL
GASTEIGER

@<TRIPOS>ATOM
      1 C         138.9483  138.6636  165.1824 C.2     1  UNL1        0.2686
      2 O         138.2157  137.5855  165.9246 O.2     1  UNL1       -0.2682
      3 N         139.6919  139.7234  165.9400 N.am    1  UNL1       -0.2707
      4 C         137.7517  139.8728  160.1837 C.3     1  UNL1        0.1321
      5 N         138.3873  139.2378  161.3849 N.ar    1  UNL1       -0.3057
      6 C         139.4534  138.1828  161.3641 C.ar    1  UNL1        0.1787
      7 N         139.7933  137.8393  162.7841 N.ar    1  UNL1       -0.2192
      8 C         138.9373  138.6820  163.6825 C.ar    1  UNL1        0.1535
      9 C         138.0683  139.5463  162.8178 C.ar    1  UNL1        0.1012
     10 C         139.7029  139.7050  167.4398 C.3     1  UNL1        0.1205
     11 C         140.6174  140.6238  168.1945 C.ar    1  UNL1       -0.0013
     12 C         142.0407  140.2236  168.4477 C.ar    1  UNL1       -0.0003
     13 C         142.9552  141.1424  169.2023 C.ar    1  UNL1        0.0302
     14 C         142.4464  142.4615  169.7037 C.ar    1  UNL1        0.1506
     15 F         143.3610  143.3803  170.4583 F       1  UNL1       -0.2033
     16 C         141.0232  142.8617  169.4504 C.ar    1  UNL1        0.0848
     17 CL        140.5144  144.1807  169.9517 Cl      1  UNL1       -0.0799
     18 C         140.1087  141.9429  168.6958 C.ar    1  UNL1        0.0111
     19 C         140.4245  140.8015  165.1977 C.3     1  UNL1        0.0941
     20 C         141.8299  140.5671  164.7287 C.3     1  UNL1        0.0226
     21 C         143.2527  141.0263  164.6080 C.3     1  UNL1        0.0188
     22 C         144.7164  141.2127  164.3383 C.3     1  UNL1        0.0686
     23 N         145.2096  140.0033  163.6007 N.3     1  UNL1       -0.2975
     24 C         144.0505  139.0694  163.4144 C.3     1  UNL1        0.0686
     25 C         142.8411  139.7017  164.0370 C.3     1  UNL1        0.0188
     26 H         145.9417  139.5427  164.1413 H       1  UNL1        0.1232
@<TRIPOS>BOND
     1     4     5    1
     2     5     6   ar
     3     6     7   ar
     4     7     8   ar
     5     8     1    1
     6     1     2    2
     7     1     3   am
     8     3    10    1
     9    10    11    1
    10    11    12   ar
    11    12    13   ar
    12    13    14   ar
    13    14    15    1
    14    14    16   ar
    15    16    17    1
    16    16    18   ar
    17     3    19    1
    18    20    19    1
    19    20    21    1
    20    21    22    1
    21    22    23    1
    22    23    24    1
    23    25    24    1
    24     8     9   ar
    25     9     5   ar
    26    18    11   ar
    27    25    20    1
    28    25    21    1
    29    23    26    1
@<TRIPOS>MOLECULE
*****
 26 29 0 0 0
SMALL
GASTEIGER

@<TRIPOS>ATOM
      1 C         142.6425  143.1985  164.3871 C.2     1  UNL1        0.2686
      2 O         143.9484  143.7893  164.8292 O.2     1  UNL1       -0.2682
      3 N         142.2726  141.8042  164.7984 N.am    1  UNL1       -0.2707
      4 C         140.3868  145.5074  160.2084 C.3     1  UNL1        0.1321
      5 N         140.6696  145.0632  161.6129 N.ar    1  UNL1       -0.3057
      6 C         139.8624  145.4133  162.8278 C.ar    1  UNL1        0.1787
      7 N         140.5032  144.7574  164.0149 N.ar    1  UNL1       -0.2192
      8 C         141.7064  144.0019  163.5337 C.ar    1  UNL1        0.1535
      9 C         141.8093  144.1909  162.0492 C.ar    1  UNL1        0.1012
     10 C         143.2085  141.0008  165.6518 C.3     1  UNL1        0.1205
     11 C         142.9698  140.8911  167.1287 C.ar    1  UNL1       -0.0013
     12 C         142.7967  139.5426  167.7624 C.ar    1  UNL1       -0.0003
     13 C         142.5580  139.4330  169.2392 C.ar    1  UNL1        0.0302
     14 C         142.4924  140.6719  170.0823 C.ar    1  UNL1        0.1506
     15 F         142.2537  140.5622  171.5592 F       1  UNL1       -0.2033
     16 C         142.6656  142.0204  169.4486 C.ar    1  UNL1        0.0848
     17 CL        142.6000  143.2593  170.2918 Cl      1  UNL1       -0.0799
     18 C         142.9043  142.1300  167.9718 C.ar    1  UNL1        0.0111
     19 C         140.9666  141.2134  164.3563 C.3     1  UNL1        0.0941
     20 C         140.0985  140.4899  165.3427 C.3     1  UNL1        0.0226
     21 C         139.0859  139.4258  165.6465 C.3     1  UNL1        0.0188
     22 C         138.0991  138.4673  166.2444 C.3     1  UNL1        0.0686
     23 N         138.0109  138.7500  167.7149 N.3     1  UNL1       -0.2975
     24 C         138.9432  139.8833  168.0258 C.3     1  UNL1        0.0686
     25 C         139.6076  140.3009  166.7474 C.3     1  UNL1        0.0188
     26 H         138.2844  137.9218  168.2437 H       1  UNL1        0.1232
@<TRIPOS>BOND
     1     4     5    1
     2     5     6   ar
     3     6     7   ar
     4     7     8   ar
     5     8     1    1
     6     1     2    2
     7     1     3   am
     8     3    10    1
     9    10    11    1
    10    11    12   ar
    11    12    13   ar
    12    13    14   ar
    13    14    15    1
    14    14    16   ar
    15    16    17    1
    16    16    18   ar
    17     3    19    1
    18    20    19    1
    19    20    21    1
    20    21    22    1
    21    22    23    1
    22    23    24    1
    23    25    24    1
    24     8     9   ar
    25     9     5   ar
    26    18    11   ar
    27    25    20    1
    28    25    21    1
    29    23    26    1
@<TRIPOS>MOLECULE
*****
 26 29 0 0 0
SMALL
GASTEIGER

@<TRIPOS>ATOM
      1 C         140.5789  138.8408  164.6573 C.2     1  UNL1        0.2686
      2 O         141.7680  138.4618  165.4893 O.2     1  UNL1       -0.2682
      3 N         139.2926  139.2327  165.3221 N.am    1  UNL1       -0.2707
      4 C         141.5086  140.3125  159.6722 C.3     1  UNL1        0.1321
      5 N         141.1032  139.5043  160.8691 N.ar    1  UNL1       -0.3057
      6 C         140.5472  138.1113  160.8451 C.ar    1  UNL1        0.1787
      7 N         140.2831  137.6932  162.2613 N.ar    1  UNL1       -0.2192
      8 C         140.6759  138.8277  163.1604 C.ar    1  UNL1        0.1535
      9 C         141.1828  139.9471  162.3001 C.ar    1  UNL1        0.1012
     10 C         139.1956  139.2457  166.8188 C.3     1  UNL1        0.1205
     11 C         139.7456  140.4048  167.5961 C.ar    1  UNL1       -0.0013
     12 C         140.0541  141.6966  166.8988 C.ar    1  UNL1       -0.0003
     13 C         140.6041  142.8556  167.6760 C.ar    1  UNL1        0.0302
     14 C         140.8456  142.7229  169.1505 C.ar    1  UNL1        0.1506
     15 F         141.3957  143.8820  169.9277 F       1  UNL1       -0.2033
     16 C         140.5371  141.4311  169.8478 C.ar    1  UNL1        0.0848
     17 CL        140.7787  141.2984  171.3222 Cl      1  UNL1       -0.0799
     18 C         139.9871  140.2721  169.0705 C.ar    1  UNL1        0.0111
     19 C         138.1034  139.6116  164.4900 C.3     1  UNL1        0.0941
     20 C         137.9878  141.0007  163.9358 C.3     1  UNL1        0.0226
     21 C         137.9829  141.9348  162.7622 C.3     1  UNL1        0.0188
     22 C         137.9319  143.0897  161.8064 C.3     1  UNL1        0.0686
     23 N         137.7097  144.3412  162.6030 N.3     1  UNL1       -0.2975
     24 C         137.6234  143.9597  164.0512 C.3     1  UNL1        0.0686
     25 C         137.7923  142.4724  164.1495 C.3     1  UNL1        0.0188
     26 H         136.8407  144.7880  162.3104 H       1  UNL1        0.1232
@<TRIPOS>BOND
     1     4     5    1
     2     5     6   ar
     3     6     7   ar
     4     7     8   ar
     5     8     1    1
     6     1     2    2
     7     1     3   am
     8     3    10    1
     9    10    11    1
    10    11    12   ar
    11    12    13   ar
    12    13    14   ar
    13    14    15    1
    14    14    16   ar
    15    16    17    1
    16    16    18   ar
    17     3    19    1
    18    20    19    1
    19    20    21    1
    20    21    22    1
    21    22    23    1
    22    23    24    1
    23    25    24    1
    24     8     9   ar
    25     9     5   ar
    26    18    11   ar
    27    25    20    1
    28    25    21    1
    29    23    26    1
@<TRIPOS>MOLECULE
*****
 26 29 0 0 0
SMALL
GASTEIGER

@<TRIPOS>ATOM
      1 C         142.4316  139.1083  165.4844 C.2     1  UNL1        0.2686
      2 O         143.3632  138.4329  166.4465 O.2     1  UNL1       -0.2682
      3 N         141.1877  139.7774  165.9894 N.am    1  UNL1       -0.2707
      4 C         142.8037  137.6507  160.4230 C.3     1  UNL1        0.1321
      5 N         142.9148  138.4446  161.6907 N.ar    1  UNL1       -0.3057
      6 C         143.5336  139.8042  161.8283 C.ar    1  UNL1        0.1787
      7 N         143.4279  140.2182  163.2661 N.ar    1  UNL1       -0.2192
      8 C         142.7438  139.1147  164.0172 C.ar    1  UNL1        0.1535
      9 C         142.4266  138.0185  163.0437 C.ar    1  UNL1        0.1012
     10 C         140.8754  139.7711  167.4565 C.3     1  UNL1        0.1205
     11 C         141.4555  140.8261  168.3513 C.ar    1  UNL1       -0.0013
     12 C         142.8420  140.6644  168.9004 C.ar    1  UNL1       -0.0003
     13 C         143.4220  141.7193  169.7952 C.ar    1  UNL1        0.0302
     14 C         142.6155  142.9359  170.1409 C.ar    1  UNL1        0.1506
     15 F         143.1956  143.9908  171.0358 F       1  UNL1       -0.2033
     16 C         141.2291  143.0976  169.5918 C.ar    1  UNL1        0.0848
     17 CL        140.4226  144.3142  169.9375 Cl      1  UNL1       -0.0799
     18 C         140.6491  142.0427  168.6970 C.ar    1  UNL1        0.0111
     19 C         140.2560  140.4529  165.0272 C.3     1  UNL1        0.0941
     20 C         140.4063  141.9176  164.7407 C.3     1  UNL1        0.0226
     21 C         141.2701  143.0873  164.3726 C.3     1  UNL1        0.0188
     22 C         141.8664  144.4193  164.0259 C.3     1  UNL1        0.0686
     23 N         140.7676  145.4401  164.0519 N.3     1  UNL1       -0.2975
     24 C         139.4921  144.7389  164.4146 C.3     1  UNL1        0.0686
     25 C         139.8027  143.2848  164.6128 C.3     1  UNL1        0.0188
     26 H         140.6754  145.8729  163.1329 H       1  UNL1        0.1232
@<TRIPOS>BOND
     1     4     5    1
     2     5     6   ar
     3     6     7   ar
     4     7     8   ar
     5     8     1    1
     6     1     2    2
     7     1     3   am
     8     3    10    1
     9    10    11    1
    10    11    12   ar
    11    12    13   ar
    12    13    14   ar
    13    14    15    1
    14    14    16   ar
    15    16    17    1
    16    16    18   ar
    17     3    19    1
    18    20    19    1
    19    20    21    1
    20    21    22    1
    21    22    23    1
    22    23    24    1
    23    25    24    1
    24     8     9   ar
    25     9     5   ar
    26    18    11   ar
    27    25    20    1
    28    25    21    1
    29    23    26    1
@<TRIPOS>MOLECULE
*****
 26 29 0 0 0
SMALL
GASTEIGER

@<TRIPOS>ATOM
      1 C         142.9452  143.4349  164.5156 C.2     1  UNL1        0.2686
      2 O         144.1918  144.0565  165.0721 O.2     1  UNL1       -0.2682
      3 N         142.3898  142.1859  165.1332 N.am    1  UNL1       -0.2707
      4 C         139.6634  146.3692  161.6000 C.3     1  UNL1        0.1321
      5 N         140.7455  145.4111  162.0013 N.ar    1  UNL1       -0.3057
      6 C         141.6353  144.6447  161.0679 C.ar    1  UNL1        0.1787
      7 N         142.5676  143.8111  161.8962 N.ar    1  UNL1       -0.2192
      8 C         142.2540  144.0624  163.3414 C.ar    1  UNL1        0.1535
      9 C         141.1280  145.0512  163.4064 C.ar    1  UNL1        0.1012
     10 C         143.0810  141.5585  166.3073 C.3     1  UNL1        0.1205
     11 C         142.4895  141.6830  167.6802 C.ar    1  UNL1       -0.0013
     12 C         143.2367  142.4151  168.7552 C.ar    1  UNL1       -0.0003
     13 C         142.6452  142.5396  170.1280 C.ar    1  UNL1        0.0302
     14 C         141.3066  141.9320  170.4258 C.ar    1  UNL1        0.1506
     15 F         140.7151  142.0565  171.7987 F       1  UNL1       -0.2033
     16 C         140.5593  141.1999  169.3508 C.ar    1  UNL1        0.0848
     17 CL        139.2206  140.5922  169.6487 Cl      1  UNL1       -0.0799
     18 C         141.1508  141.0754  167.9780 C.ar    1  UNL1        0.0111
     19 C         141.1432  141.5643  164.5766 C.3     1  UNL1        0.0941
     20 C         141.1603  140.1394  164.1085 C.3     1  UNL1        0.0226
     21 C         141.2212  139.1395  162.9921 C.3     1  UNL1        0.0188
     22 C         141.2660  137.9289  162.1074 C.3     1  UNL1        0.0686
     23 N         141.2013  136.7125  162.9827 N.3     1  UNL1       -0.2975
     24 C         141.1167  137.1712  164.4084 C.3     1  UNL1        0.0686
     25 C         141.1289  138.6712  164.4141 C.3     1  UNL1        0.0188
     26 H         142.0392  136.1461  162.8505 H       1  UNL1        0.1232
@<TRIPOS>BOND
     1     4     5    1
     2     5     6   ar
     3     6     7   ar
     4     7     8   ar
     5     8     1    1
     6     1     2    2
     7     1     3   am
     8     3    10    1
     9    10    11    1
    10    11    12   ar
    11    12    13   ar
    12    13    14   ar
    13    14    15    1
    14    14    16   ar
    15    16    17    1
    16    16    18   ar
    17     3    19    1
    18    20    19    1
    19    20    21    1
    20    21    22    1
    21    22    23    1
    22    23    24    1
    23    25    24    1
    24     8     9   ar
    25     9     5   ar
    26    18    11   ar
    27    25    20    1
    28    25    21    1
    29    23    26    1
@<TRIPOS>MOLECULE
*****
 26 29 0 0 0
SMALL
GASTEIGER

@<TRIPOS>ATOM
      1 C         139.9057  138.2928  162.7471 C.2     1  UNL1        0.2686
      2 O         140.6801  137.0927  163.2053 O.2     1  UNL1       -0.2682
      3 N         138.9327  138.9569  163.6757 N.am    1  UNL1       -0.2707
      4 C         139.4452  139.0480  157.5415 C.3     1  UNL1        0.1321
      5 N         139.8925  139.1759  158.9675 N.ar    1  UNL1       -0.3057
      6 C         140.9268  140.1314  159.4848 C.ar    1  UNL1        0.1787
      7 N         141.0576  139.9168  160.9636 N.ar    1  UNL1       -0.2192
      8 C         140.1042  138.8288  161.3603 C.ar    1  UNL1        0.1535
      9 C         139.3841  138.3709  160.1267 C.ar    1  UNL1        0.1012
     10 C         138.7342  138.4209  165.0625 C.3     1  UNL1        0.1205
     11 C         139.4657  139.0387  166.2173 C.ar    1  UNL1       -0.0013
     12 C         140.9404  139.2949  166.1203 C.ar    1  UNL1       -0.0003
     13 C         141.6718  139.9127  167.2750 C.ar    1  UNL1        0.0302
     14 C         140.9285  140.2742  168.5267 C.ar    1  UNL1        0.1506
     15 F         141.6600  140.8919  169.6814 F       1  UNL1       -0.2033
     16 C         139.4537  140.0179  168.6237 C.ar    1  UNL1        0.0848
     17 CL        138.7104  140.3794  169.8754 Cl      1  UNL1       -0.0799
     18 C         138.7223  139.4002  167.4690 C.ar    1  UNL1        0.0111
     19 C         138.1583  140.1571  163.2175 C.3     1  UNL1        0.0941
     20 C         138.3702  141.4850  163.8822 C.3     1  UNL1        0.0226
     21 C         137.9037  142.8801  164.1753 C.3     1  UNL1        0.0188
     22 C         137.7034  144.2945  164.6329 C.3     1  UNL1        0.0686
     23 N         138.8799  144.6784  165.4807 N.3     1  UNL1       -0.2975
     24 C         139.8072  143.5012  165.5470 C.3     1  UNL1        0.0686
     25 C         139.2038  142.3898  164.7403 C.3     1  UNL1        0.0188
     26 H         138.5648  144.9241  166.4191 H       1  UNL1        0.1232
@<TRIPOS>BOND
     1     4     5    1
     2     5     6   ar
     3     6     7   ar
     4     7     8   ar
     5     8     1    1
     6     1     2    2
     7     1     3   am
     8     3    10    1
     9    10    11    1
    10    11    12   ar
    11    12    13   ar
    12    13    14   ar
    13    14    15    1
    14    14    16   ar
    15    16    17    1
    16    16    18   ar
    17     3    19    1
    18    20    19    1
    19    20    21    1
    20    21    22    1
    21    22    23    1
    22    23    24    1
    23    25    24    1
    24     8     9   ar
    25     9     5   ar
    26    18    11   ar
    27    25    20    1
    28    25    21    1
    29    23    26    1
