@<TRIPOS>MOLECULE
*****
 12 13 0 0 0
SMALL
GASTEIGER

@<TRIPOS>ATOM
      1 CA        139.9555  141.1005  169.3795 C.ar    1  UNL1        0.0713
      2 C         140.3477  141.4880  167.9845 C.ar    1  UNL1        0.0260
      3 C         139.6225  140.5850  167.0313 C.ar    1  UNL1        0.0465
      4 S         139.4167  140.2664  165.5800 S.2     1  UNL1       -0.0849
      5 C         138.4491  139.1239  165.4890 C.ar    1  UNL1        0.0370
      6 C         138.0568  138.7364  166.8840 C.ar    1  UNL1        0.0244
      7 C         138.7820  139.6394  167.8372 C.ar    1  UNL1        0.0632
      8 N         138.9878  139.9580  169.2884 N.ar    1  UNL1       -0.3518
      9 H         138.5624  139.4980  170.0478 H       1  UNL1        0.1660
     10 O         140.7758  143.2057  170.6621 O.co2   1  UNL1       -0.5431
     11 C         140.4449  141.7427  170.6435 C.2     1  UNL1        0.0884
     12 OXT       140.6035  140.9221  171.8891 O.co2   1  UNL1       -0.5431
@<TRIPOS>UNITY_ATOM_ATTR
10 1
charge -1
@<TRIPOS>BOND
     1    10    11   ar
     2    11    12   ar
     3    11     1    1
     4     1     2   ar
     5     2     3   ar
     6     3     4   ar
     7     4     5   ar
     8     5     6   ar
     9     6     7   ar
    10     7     8   ar
    11     8     1   ar
    12     7     3   ar
    13     8     9    1
@<TRIPOS>MOLECULE
*****
 12 13 0 0 0
SMALL
GASTEIGER

@<TRIPOS>ATOM
      1 CA        138.0224  141.7171  163.2233 C.ar    1  UNL1        0.0713
      2 C         138.5834  140.4756  162.5955 C.ar    1  UNL1        0.0260
      3 C         138.6652  139.4167  163.6547 C.ar    1  UNL1        0.0465
      4 S         139.0624  137.9951  163.9213 S.2     1  UNL1       -0.0849
      5 C         138.7975  137.7034  165.3686 C.ar    1  UNL1        0.0370
      6 C         138.2365  138.9448  165.9965 C.ar    1  UNL1        0.0244
      7 C         138.1547  140.0037  164.9373 C.ar    1  UNL1        0.0632
      8 N         137.7575  141.4254  164.6707 N.ar    1  UNL1       -0.3518
      9 H         137.3878  142.0562  165.3299 H       1  UNL1        0.1660
     10 O         137.5614  144.2717  163.3276 O.co2   1  UNL1       -0.5431
     11 C         137.7706  143.0211  162.5263 C.2     1  UNL1        0.0884
     12 OXT       137.7279  143.0746  161.0278 O.co2   1  UNL1       -0.5431
@<TRIPOS>UNITY_ATOM_ATTR
10 1
charge -1
@<TRIPOS>BOND
     1    10    11   ar
     2    11    12   ar
     3    11     1    1
     4     1     2   ar
     5     2     3   ar
     6     3     4   ar
     7     4     5   ar
     8     5     6   ar
     9     6     7   ar
    10     7     8   ar
    11     8     1   ar
    12     7     3   ar
    13     8     9    1
@<TRIPOS>MOLECULE
*****
 12 13 0 0 0
SMALL
GASTEIGER

@<TRIPOS>ATOM
      1 CA        138.3679  140.2342  165.4112 C.ar    1  UNL1        0.0713
      2 C         139.4270  141.1837  165.8877 C.ar    1  UNL1        0.0260
      3 C         139.2161  142.4982  165.1965 C.ar    1  UNL1        0.0465
      4 S         139.7404  143.8973  165.0638 S.2     1  UNL1       -0.0849
      5 C         138.8749  144.6250  164.0781 C.ar    1  UNL1        0.0370
      6 C         137.8159  143.6756  163.6017 C.ar    1  UNL1        0.0244
      7 C         138.0267  142.3611  164.2928 C.ar    1  UNL1        0.0632
      8 N         137.5025  140.9620  164.4255 N.ar    1  UNL1       -0.3518
      9 H         136.7266  140.5872  163.9493 H       1  UNL1        0.1660
     10 O         137.2983  138.4722  166.9926 O.co2   1  UNL1       -0.5431
     11 C         138.2032  138.8077  165.8443 C.2     1  UNL1        0.0884
     12 OXT       138.9434  137.7165  165.1292 O.co2   1  UNL1       -0.5431
@<TRIPOS>UNITY_ATOM_ATTR
10 1
charge -1
@<TRIPOS>BOND
     1    10    11   ar
     2    11    12   ar
     3    11     1    1
     4     1     2   ar
     5     2     3   ar
     6     3     4   ar
     7     4     5   ar
     8     5     6   ar
     9     6     7   ar
    10     7     8   ar
    11     8     1   ar
    12     7     3   ar
    13     8     9    1
@<TRIPOS>MOLECULE
*****
 12 13 0 0 0
SMALL
GASTEIGER

@<TRIPOS>ATOM
      1 CA        139.8988  140.2063  168.8306 C.ar    1  UNL1        0.0713
      2 C         139.4372  139.9530  167.4260 C.ar    1  UNL1        0.0260
      3 C         140.6305  139.5495  166.6116 C.ar    1  UNL1        0.0465
      4 S         141.0826  139.1436  165.2402 S.2     1  UNL1       -0.0849
      5 C         142.5612  138.8967  165.2938 C.ar    1  UNL1        0.0370
      6 C         143.0228  139.1500  166.6984 C.ar    1  UNL1        0.0244
      7 C         141.8296  139.5535  167.5128 C.ar    1  UNL1        0.0632
      8 N         141.3774  139.9594  168.8842 N.ar    1  UNL1       -0.3518
      9 H         141.9505  140.0482  169.6798 H       1  UNL1        0.1660
     10 O         137.9754  139.7074  170.5043 O.co2   1  UNL1       -0.5431
     11 C         139.0337  140.6318  169.9797 C.2     1  UNL1        0.0884
     12 OXT       139.2270  141.9819  170.6044 O.co2   1  UNL1       -0.5431
@<TRIPOS>UNITY_ATOM_ATTR
10 1
charge -1
@<TRIPOS>BOND
     1    10    11   ar
     2    11    12   ar
     3    11     1    1
     4     1     2   ar
     5     2     3   ar
     6     3     4   ar
     7     4     5   ar
     8     5     6   ar
     9     6     7   ar
    10     7     8   ar
    11     8     1   ar
    12     7     3   ar
    13     8     9    1
@<TRIPOS>MOLECULE
*****
 12 13 0 0 0
SMALL
GASTEIGER

@<TRIPOS>ATOM
      1 CA        139.0793  139.5778  167.7837 C.ar    1  UNL1        0.0713
      2 C         140.4648  140.0178  167.4136 C.ar    1  UNL1        0.0260
      3 C         141.1436  140.5076  168.6583 C.ar    1  UNL1        0.0465
      4 S         142.4194  141.0823  169.1988 S.2     1  UNL1       -0.0849
      5 C         142.2420  141.3001  170.6723 C.ar    1  UNL1        0.0370
      6 C         140.8565  140.8602  171.0424 C.ar    1  UNL1        0.0244
      7 C         140.1777  140.3704  169.7977 C.ar    1  UNL1        0.0632
      8 N         138.9019  139.7957  169.2572 N.ar    1  UNL1       -0.3518
      9 H         138.0906  139.5965  169.7781 H       1  UNL1        0.1660
     10 O         137.0852  137.9768  167.3258 O.co2   1  UNL1       -0.5431
     11 C         138.0518  139.0182  166.8452 C.2     1  UNL1        0.0884
     12 OXT       137.9908  139.5001  165.4259 O.co2   1  UNL1       -0.5431
@<TRIPOS>UNITY_ATOM_ATTR
10 1
charge -1
@<TRIPOS>BOND
     1    10    11   ar
     2    11    12   ar
     3    11     1    1
     4     1     2   ar
     5     2     3   ar
     6     3     4   ar
     7     4     5   ar
     8     5     6   ar
     9     6     7   ar
    10     7     8   ar
    11     8     1   ar
    12     7     3   ar
    13     8     9    1
@<TRIPOS>MOLECULE
*****
 12 13 0 0 0
SMALL
GASTEIGER

@<TRIPOS>ATOM
      1 CA        140.3881  141.7960  169.3313 C.ar    1  UNL1        0.0713
      2 C         139.5906  140.5255  169.3187 C.ar    1  UNL1        0.0260
      3 C         139.3200  140.1621  167.8888 C.ar    1  UNL1        0.0465
      4 S         138.6599  139.1524  166.9974 S.2     1  UNL1       -0.0849
      5 C         138.8822  139.5742  165.5751 C.ar    1  UNL1        0.0370
      6 C         139.6797  140.8446  165.5876 C.ar    1  UNL1        0.0244
      7 C         139.9502  141.2080  167.0176 C.ar    1  UNL1        0.0632
      8 N         140.6103  142.2177  167.9090 N.ar    1  UNL1       -0.3518
      9 H         141.1030  143.0169  167.6127 H       1  UNL1        0.1660
     10 O         141.7577  143.7236  170.4073 O.co2   1  UNL1       -0.5431
     11 C         140.8773  142.5178  170.5517 C.2     1  UNL1        0.0884
     12 OXT       140.4862  142.0339  171.9166 O.co2   1  UNL1       -0.5431
@<TRIPOS>UNITY_ATOM_ATTR
10 1
charge -1
@<TRIPOS>BOND
     1    10    11   ar
     2    11    12   ar
     3    11     1    1
     4     1     2   ar
     5     2     3   ar
     6     3     4   ar
     7     4     5   ar
     8     5     6   ar
     9     6     7   ar
    10     7     8   ar
    11     8     1   ar
    12     7     3   ar
    13     8     9    1
@<TRIPOS>MOLECULE
*****
 12 13 0 0 0
SMALL
GASTEIGER

@<TRIPOS>ATOM
      1 CA        142.0531  142.6814  169.2518 C.ar    1  UNL1        0.0713
      2 C         142.9786  142.2058  168.1713 C.ar    1  UNL1        0.0260
      3 C         142.1919  142.1051  166.8982 C.ar    1  UNL1        0.0465
      4 S         142.2777  141.7489  165.4436 S.2     1  UNL1       -0.0849
      5 C         140.9190  141.9421  164.8382 C.ar    1  UNL1        0.0370
      6 C         139.9934  142.4176  165.9186 C.ar    1  UNL1        0.0244
      7 C         140.7801  142.5184  167.1918 C.ar    1  UNL1        0.0632
      8 N         140.6943  142.8745  168.6463 N.ar    1  UNL1       -0.3518
      9 H         139.8878  143.1812  169.1204 H       1  UNL1        0.1660
     10 O         141.7070  142.1821  171.7778 O.co2   1  UNL1       -0.5431
     11 C         142.4216  142.9216  170.6858 C.2     1  UNL1        0.0884
     12 OXT       143.5048  143.9013  171.0279 O.co2   1  UNL1       -0.5431
@<TRIPOS>UNITY_ATOM_ATTR
10 1
charge -1
@<TRIPOS>BOND
     1    10    11   ar
     2    11    12   ar
     3    11     1    1
     4     1     2   ar
     5     2     3   ar
     6     3     4   ar
     7     4     5   ar
     8     5     6   ar
     9     6     7   ar
    10     7     8   ar
    11     8     1   ar
    12     7     3   ar
    13     8     9    1
@<TRIPOS>MOLECULE
*****
 12 13 0 0 0
SMALL
GASTEIGER

@<TRIPOS>ATOM
      1 CA        141.1984  141.0698  169.5662 C.ar    1  UNL1        0.0713
      2 C         141.2001  140.0661  168.4514 C.ar    1  UNL1        0.0260
      3 C         142.0363  140.6158  167.3340 C.ar    1  UNL1        0.0465
      4 S         142.5541  140.3352  165.9545 S.2     1  UNL1       -0.0849
      5 C         143.3892  141.5053  165.5260 C.ar    1  UNL1        0.0370
      6 C         143.3875  142.5090  166.6407 C.ar    1  UNL1        0.0244
      7 C         142.5513  141.9592  167.7582 C.ar    1  UNL1        0.0632
      8 N         142.0335  142.2398  169.1377 N.ar    1  UNL1       -0.3518
      9 H         142.2107  143.0497  169.6687 H       1  UNL1        0.1660
     10 O         139.6470  139.7152  171.1498 O.co2   1  UNL1       -0.5431
     11 C         140.4866  140.9283  170.8789 C.2     1  UNL1        0.0884
     12 OXT       140.6143  141.9999  171.9207 O.co2   1  UNL1       -0.5431
@<TRIPOS>UNITY_ATOM_ATTR
10 1
charge -1
@<TRIPOS>BOND
     1    10    11   ar
     2    11    12   ar
     3    11     1    1
     4     1     2   ar
     5     2     3   ar
     6     3     4   ar
     7     4     5   ar
     8     5     6   ar
     9     6     7   ar
    10     7     8   ar
    11     8     1   ar
    12     7     3   ar
    13     8     9    1
@<TRIPOS>MOLECULE
*****
 12 13 0 0 0
SMALL
GASTEIGER

@<TRIPOS>ATOM
      1 CA        140.9211  142.0188  169.4655 C.ar    1  UNL1        0.0713
      2 C         140.7075  142.3124  168.0101 C.ar    1  UNL1        0.0260
      3 C         141.4134  141.2542  167.2152 C.ar    1  UNL1        0.0465
      4 S         141.7176  140.7816  165.8244 S.2     1  UNL1       -0.0849
      5 C         142.5555  139.5419  165.9291 C.ar    1  UNL1        0.0370
      6 C         142.7692  139.2483  167.3845 C.ar    1  UNL1        0.0244
      7 C         142.0633  140.3065  168.1793 C.ar    1  UNL1        0.0632
      8 N         141.7591  140.7791  169.5701 N.ar    1  UNL1       -0.3518
      9 H         142.0572  140.3507  170.4049 H       1  UNL1        0.1660
     10 O         140.3641  142.2349  171.9939 O.co2   1  UNL1       -0.5431
     11 C         140.3901  142.8236  170.6145 C.2     1  UNL1        0.0884
     12 OXT       139.8851  144.2171  170.3842 O.co2   1  UNL1       -0.5431
@<TRIPOS>UNITY_ATOM_ATTR
10 1
charge -1
@<TRIPOS>BOND
     1    10    11   ar
     2    11    12   ar
     3    11     1    1
     4     1     2   ar
     5     2     3   ar
     6     3     4   ar
     7     4     5   ar
     8     5     6   ar
     9     6     7   ar
    10     7     8   ar
    11     8     1   ar
    12     7     3   ar
    13     8     9    1
