@<TRIPOS>MOLECULE
*****
 29 33 0 0 0
SMALL
GASTEIGER

@<TRIPOS>ATOM
      1 C         142.3976  140.9732  165.6053 C.3     1  UNL1        0.1182
      2 C         142.3246  141.4311  167.0318 C.2     1  UNL1        0.0844
      3 N         143.4119  142.2950  167.5988 N.2     1  UNL1       -0.1600
      4 N         143.3388  142.7528  169.0253 N.am    1  UNL1       -0.0757
      5 C         142.1785  142.3468  169.8849 C.2     1  UNL1        0.2859
      6 O         142.1055  142.8047  171.3115 O.2     1  UNL1       -0.2665
      7 C         141.0913  141.4829  169.3179 C.2     1  UNL1        0.0578
      8 C         139.9309  141.0769  170.1774 C.2     1  UNL1        0.0338
      9 C         138.8437  140.2130  169.6105 C.2     1  UNL1        0.1377
     10 F         137.6834  139.8070  170.4700 F       1  UNL1       -0.2045
     11 C         138.9167  139.7551  168.1839 C.2     1  UNL1        0.0234
     12 C         140.0770  140.1611  167.3243 C.3     1  UNL1        0.1033
     13 C         141.1643  141.0250  167.8914 C.2     1  UNL1        0.0164
     14 N         140.1501  139.7032  165.8978 N.3     1  UNL1       -0.2885
     15 C         141.3104  140.1093  165.0383 C.3     1  UNL1        0.0901
     16 H         139.4364  139.1362  165.5257 H       1  UNL1        0.1241
     17 C         141.3834  139.6514  163.6117 C.ar    1  UNL1       -0.0071
     18 C         142.0229  138.3363  163.2779 C.ar    1  UNL1       -0.0007
     19 C         142.0959  137.8784  161.8514 C.ar    1  UNL1        0.0294
     20 C         141.5293  138.7357  160.7587 C.ar    1  UNL1        0.1401
     21 F         141.6024  138.2778  159.3321 F       1  UNL1       -0.2042
     22 C         140.8898  140.0508  161.0924 C.ar    1  UNL1        0.0294
     23 C         140.8168  140.5086  162.5189 C.ar    1  UNL1       -0.0007
     24 C         142.6616  143.7622  163.9316 C.3     1  UNL1        0.1552
     25 N         143.6793  142.6612  163.9764 N.ar    1  UNL1       -0.2338
     26 N         144.9970  142.6488  163.2598 N.ar    1  UNL1       -0.1454
     27 C         145.6900  141.3592  163.5862 C.ar    1  UNL1        0.2206
     28 N         144.8007  140.5746  164.5045 N.ar    1  UNL1       -0.2075
     29 C         143.5579  141.3792  164.7457 C.ar    1  UNL1        0.1449
@<TRIPOS>BOND
     1    24    25    1
     2    25    26   ar
     3    26    27   ar
     4    27    28   ar
     5    28    29   ar
     6     1    29    1
     7     1     2    1
     8     2     3    1
     9     3     4    2
    10     4     5    1
    11     5     6    2
    12     5     7    1
    13     7     8    2
    14     8     9    1
    15     9    10    1
    16     9    11    2
    17    11    12    1
    18    12    13    1
    19    12    14    1
    20    14    15    1
    21    15    17    1
    22    17    18   ar
    23    18    19   ar
    24    19    20   ar
    25    20    21    1
    26    20    22   ar
    27    22    23   ar
    28    29    25   ar
    29    15     1    1
    30    23    17   ar
    31    13     2    2
    32    13     7    1
    33    14    16    1
@<TRIPOS>MOLECULE
*****
 29 33 0 0 0
SMALL
GASTEIGER

@<TRIPOS>ATOM
      1 C         141.6103  141.7305  165.4800 C.3     1  UNL1        0.1182
      2 C         141.9858  140.8418  166.6286 C.2     1  UNL1        0.0844
      3 N         142.8042  139.6084  166.3863 N.2     1  UNL1       -0.1600
      4 N         143.1797  138.7198  167.5349 N.am    1  UNL1       -0.0757
      5 C         142.7367  139.0646  168.9259 C.2     1  UNL1        0.2859
      6 O         143.1121  138.1759  170.0745 O.2     1  UNL1       -0.2665
      7 C         141.9182  140.2980  169.1682 C.2     1  UNL1        0.0578
      8 C         141.4752  140.6428  170.5592 C.2     1  UNL1        0.0338
      9 C         140.6567  141.8762  170.8016 C.2     1  UNL1        0.1377
     10 F         140.2137  142.2210  172.1926 F       1  UNL1       -0.2045
     11 C         140.2812  142.7649  169.6529 C.2     1  UNL1        0.0234
     12 C         140.7243  142.4201  168.2619 C.3     1  UNL1        0.1033
     13 C         141.5428  141.1866  168.0196 C.2     1  UNL1        0.0164
     14 N         140.3488  143.3087  167.1133 N.3     1  UNL1       -0.2885
     15 C         140.7918  142.9639  165.7223 C.3     1  UNL1        0.0901
     16 H         139.8116  144.1182  167.2724 H       1  UNL1        0.1241
     17 C         140.4164  143.8526  164.5737 C.ar    1  UNL1       -0.0071
     18 C         141.4373  144.7719  163.9717 C.ar    1  UNL1       -0.0007
     19 C         141.0618  145.6605  162.8231 C.ar    1  UNL1        0.0294
     20 C         139.6653  145.6298  162.2765 C.ar    1  UNL1        0.1401
     21 F         139.2899  146.5185  161.1278 F       1  UNL1       -0.2042
     22 C         138.6444  144.7104  162.8784 C.ar    1  UNL1        0.0294
     23 C         139.0199  143.8218  164.0270 C.ar    1  UNL1       -0.0007
     24 C         144.5232  142.4045  164.1721 C.3     1  UNL1        0.1552
     25 N         143.3922  141.6955  163.4878 N.ar    1  UNL1       -0.2338
     26 N         143.4016  141.1718  162.0822 N.ar    1  UNL1       -0.1454
     27 C         142.0685  140.5383  161.8147 C.ar    1  UNL1        0.2206
     28 N         141.2353  140.6705  163.0549 N.ar    1  UNL1       -0.2075
     29 C         142.0533  141.3857  164.0890 C.ar    1  UNL1        0.1449
@<TRIPOS>BOND
     1    24    25    1
     2    25    26   ar
     3    26    27   ar
     4    27    28   ar
     5    28    29   ar
     6     1    29    1
     7     1     2    1
     8     2     3    1
     9     3     4    2
    10     4     5    1
    11     5     6    2
    12     5     7    1
    13     7     8    2
    14     8     9    1
    15     9    10    1
    16     9    11    2
    17    11    12    1
    18    12    13    1
    19    12    14    1
    20    14    15    1
    21    15    17    1
    22    17    18   ar
    23    18    19   ar
    24    19    20   ar
    25    20    21    1
    26    20    22   ar
    27    22    23   ar
    28    29    25   ar
    29    15     1    1
    30    23    17   ar
    31    13     2    2
    32    13     7    1
    33    14    16    1
@<TRIPOS>MOLECULE
*****
 29 33 0 0 0
SMALL
GASTEIGER

@<TRIPOS>ATOM
      1 C         140.8520  140.1455  165.0412 C.3     1  UNL1        0.1182
      2 C         140.3272  140.1381  166.4465 C.2     1  UNL1        0.0844
      3 N         139.0628  139.3992  166.7710 N.2     1  UNL1       -0.1600
      4 N         138.5381  139.3918  168.1762 N.am    1  UNL1       -0.0757
      5 C         139.2779  140.1231  169.2569 C.2     1  UNL1        0.2859
      6 O         138.7531  140.1157  170.6621 O.2     1  UNL1       -0.2665
      7 C         140.5423  140.8620  168.9324 C.2     1  UNL1        0.0578
      8 C         141.2820  141.5933  170.0131 C.2     1  UNL1        0.0338
      9 C         142.5464  142.3321  169.6886 C.2     1  UNL1        0.1377
     10 F         143.2862  143.0635  170.7693 F       1  UNL1       -0.2045
     11 C         143.0712  142.3396  168.2833 C.2     1  UNL1        0.0234
     12 C         142.3315  141.6083  167.2026 C.3     1  UNL1        0.1033
     13 C         141.0670  140.8694  167.5272 C.2     1  UNL1        0.0164
     14 N         142.8561  141.6157  165.7974 N.3     1  UNL1       -0.2885
     15 C         142.1164  140.8844  164.7167 C.3     1  UNL1        0.0901
     16 H         143.6860  142.1006  165.5844 H       1  UNL1        0.1241
     17 C         142.6412  140.8918  163.3115 C.ar    1  UNL1       -0.0071
     18 C         143.6151  139.8404  162.8690 C.ar    1  UNL1       -0.0007
     19 C         144.1398  139.8479  161.4638 C.ar    1  UNL1        0.0294
     20 C         143.6906  140.9069  160.5011 C.ar    1  UNL1        0.1401
     21 F         144.2153  140.9144  159.0959 F       1  UNL1       -0.2042
     22 C         142.7166  141.9583  160.9436 C.ar    1  UNL1        0.0294
     23 C         142.1919  141.9508  162.3488 C.ar    1  UNL1       -0.0007
     24 C         141.2710  137.0182  164.2084 C.3     1  UNL1        0.1552
     25 N         140.3049  137.9767  163.5777 N.ar    1  UNL1       -0.2338
     26 N         139.3617  137.6660  162.4535 N.ar    1  UNL1       -0.1454
     27 C         138.5861  138.9114  162.1415 C.ar    1  UNL1        0.2206
     28 N         139.0500  139.9919  163.0729 N.ar    1  UNL1       -0.2075
     29 C         140.1123  139.4142  163.9605 C.ar    1  UNL1        0.1449
@<TRIPOS>BOND
     1    24    25    1
     2    25    26   ar
     3    26    27   ar
     4    27    28   ar
     5    28    29   ar
     6     1    29    1
     7     1     2    1
     8     2     3    1
     9     3     4    2
    10     4     5    1
    11     5     6    2
    12     5     7    1
    13     7     8    2
    14     8     9    1
    15     9    10    1
    16     9    11    2
    17    11    12    1
    18    12    13    1
    19    12    14    1
    20    14    15    1
    21    15    17    1
    22    17    18   ar
    23    18    19   ar
    24    19    20   ar
    25    20    21    1
    26    20    22   ar
    27    22    23   ar
    28    29    25   ar
    29    15     1    1
    30    23    17   ar
    31    13     2    2
    32    13     7    1
    33    14    16    1
@<TRIPOS>MOLECULE
*****
 29 33 0 0 0
SMALL
GASTEIGER

@<TRIPOS>ATOM
      1 C         140.2885  141.5906  164.9875 C.3     1  UNL1        0.1182
      2 C         140.2341  141.0604  166.3896 C.2     1  UNL1        0.0844
      3 N         139.0776  140.2106  166.8257 N.2     1  UNL1       -0.1600
      4 N         139.0232  139.6805  168.2278 N.am    1  UNL1       -0.0757
      5 C         140.1253  140.0002  169.1938 C.2     1  UNL1        0.2859
      6 O         140.0709  139.4700  170.5960 O.2     1  UNL1       -0.2665
      7 C         141.2818  140.8500  168.7577 C.2     1  UNL1        0.0578
      8 C         142.3839  141.1697  169.7237 C.2     1  UNL1        0.0338
      9 C         143.5404  142.0196  169.2876 C.2     1  UNL1        0.1377
     10 F         144.6425  142.3393  170.2536 F       1  UNL1       -0.2045
     11 C         143.5948  142.5498  167.8855 C.2     1  UNL1        0.0234
     12 C         142.4927  142.2301  166.9195 C.3     1  UNL1        0.1033
     13 C         141.3362  141.3802  167.3556 C.2     1  UNL1        0.0164
     14 N         142.5471  142.7602  165.5174 N.3     1  UNL1       -0.2885
     15 C         141.4450  142.4405  164.5514 C.3     1  UNL1        0.0901
     16 H         143.3061  143.3180  165.2311 H       1  UNL1        0.1241
     17 C         141.4994  142.9707  163.1492 C.ar    1  UNL1       -0.0071
     18 C         141.0133  144.3584  162.8527 C.ar    1  UNL1       -0.0007
     19 C         141.0677  144.8885  161.4506 C.ar    1  UNL1        0.0294
     20 C         141.6083  144.0310  160.3450 C.ar    1  UNL1        0.1401
     21 F         141.6627  144.5612  158.9428 F       1  UNL1       -0.2042
     22 C         142.0944  142.6433  160.6415 C.ar    1  UNL1        0.0294
     23 C         142.0400  142.1131  162.0436 C.ar    1  UNL1       -0.0007
     24 C         137.6825  143.4538  164.3655 C.3     1  UNL1        0.1552
     25 N         137.9885  142.1273  163.7356 N.ar    1  UNL1       -0.2338
     26 N         137.1504  141.4244  162.7092 N.ar    1  UNL1       -0.1454
     27 C         137.8303  140.1335  162.3607 C.ar    1  UNL1        0.2206
     28 N         139.0886  140.0387  163.1717 N.ar    1  UNL1       -0.2075
     29 C         139.1864  141.2709  164.0215 C.ar    1  UNL1        0.1449
@<TRIPOS>BOND
     1    24    25    1
     2    25    26   ar
     3    26    27   ar
     4    27    28   ar
     5    28    29   ar
     6     1    29    1
     7     1     2    1
     8     2     3    1
     9     3     4    2
    10     4     5    1
    11     5     6    2
    12     5     7    1
    13     7     8    2
    14     8     9    1
    15     9    10    1
    16     9    11    2
    17    11    12    1
    18    12    13    1
    19    12    14    1
    20    14    15    1
    21    15    17    1
    22    17    18   ar
    23    18    19   ar
    24    19    20   ar
    25    20    21    1
    26    20    22   ar
    27    22    23   ar
    28    29    25   ar
    29    15     1    1
    30    23    17   ar
    31    13     2    2
    32    13     7    1
    33    14    16    1
@<TRIPOS>MOLECULE
*****
 29 33 0 0 0
SMALL
GASTEIGER

@<TRIPOS>ATOM
      1 C         141.5028  141.0722  165.0941 C.3     1  UNL1        0.1182
      2 C         142.2194  142.2652  164.5343 C.2     1  UNL1        0.0844
      3 N         143.6993  142.4114  164.7306 N.2     1  UNL1       -0.1600
      4 N         144.4159  143.6043  164.1708 N.am    1  UNL1       -0.0757
      5 C         143.6526  144.6510  163.4147 C.2     1  UNL1        0.2859
      6 O         144.3692  145.8440  162.8549 O.2     1  UNL1       -0.2665
      7 C         142.1727  144.5048  163.2184 C.2     1  UNL1        0.0578
      8 C         141.4094  145.5516  162.4623 C.2     1  UNL1        0.0338
      9 C         139.9296  145.4054  162.2659 C.2     1  UNL1        0.1377
     10 F         139.1663  146.4521  161.5098 F       1  UNL1       -0.2045
     11 C         139.2129  144.2124  162.8257 C.2     1  UNL1        0.0234
     12 C         139.9762  143.1657  163.5819 C.3     1  UNL1        0.1033
     13 C         141.4561  143.3119  163.7782 C.2     1  UNL1        0.0164
     14 N         139.2596  141.9728  164.1416 N.3     1  UNL1       -0.2885
     15 C         140.0229  140.9260  164.8978 C.3     1  UNL1        0.0901
     16 H         138.2883  141.8768  164.0128 H       1  UNL1        0.1241
     17 C         139.3063  139.7330  165.4576 C.ar    1  UNL1       -0.0071
     18 C         139.3634  138.4181  164.7382 C.ar    1  UNL1       -0.0007
     19 C         138.6468  137.2252  165.2980 C.ar    1  UNL1        0.0294
     20 C         137.8730  137.3473  166.5772 C.ar    1  UNL1        0.1401
     21 F         137.1564  136.1543  167.1370 F       1  UNL1       -0.2042
     22 C         137.8158  138.6622  167.2965 C.ar    1  UNL1        0.0294
     23 C         138.5325  139.8551  166.7367 C.ar    1  UNL1       -0.0007
     24 C         141.7994  140.8833  168.3385 C.3     1  UNL1        0.1552
     25 N         142.4024  139.9386  167.3415 N.ar    1  UNL1       -0.2338
     26 N         143.2477  138.7412  167.6607 N.ar    1  UNL1       -0.1454
     27 C         143.6337  138.0881  166.3668 C.ar    1  UNL1        0.2206
     28 N         143.0270  138.8817  165.2478 N.ar    1  UNL1       -0.2075
     29 C         142.2661  140.0254  165.8502 C.ar    1  UNL1        0.1449
@<TRIPOS>BOND
     1    24    25    1
     2    25    26   ar
     3    26    27   ar
     4    27    28   ar
     5    28    29   ar
     6     1    29    1
     7     1     2    1
     8     2     3    1
     9     3     4    2
    10     4     5    1
    11     5     6    2
    12     5     7    1
    13     7     8    2
    14     8     9    1
    15     9    10    1
    16     9    11    2
    17    11    12    1
    18    12    13    1
    19    12    14    1
    20    14    15    1
    21    15    17    1
    22    17    18   ar
    23    18    19   ar
    24    19    20   ar
    25    20    21    1
    26    20    22   ar
    27    22    23   ar
    28    29    25   ar
    29    15     1    1
    30    23    17   ar
    31    13     2    2
    32    13     7    1
    33    14    16    1
@<TRIPOS>MOLECULE
*****
 29 33 0 0 0
SMALL
GASTEIGER

@<TRIPOS>ATOM
      1 C         142.0355  140.3748  163.9922 C.3     1  UNL1        0.1182
      2 C         141.5679  140.7146  165.3764 C.2     1  UNL1        0.0844
      3 N         142.3023  141.7426  166.1849 N.2     1  UNL1       -0.1600
      4 N         141.8347  142.0824  167.5690 N.am    1  UNL1       -0.0757
      5 C         140.6326  141.3942  168.1446 C.2     1  UNL1        0.2859
      6 O         140.1650  141.7340  169.5288 O.2     1  UNL1       -0.2665
      7 C         139.8982  140.3661  167.3361 C.2     1  UNL1        0.0578
      8 C         138.6961  139.6779  167.9118 C.2     1  UNL1        0.0338
      9 C         137.9617  138.6499  167.1033 C.2     1  UNL1        0.1377
     10 F         136.7596  137.9616  167.6789 F       1  UNL1       -0.2045
     11 C         138.4293  138.3100  165.7191 C.2     1  UNL1        0.0234
     12 C         139.6314  138.9983  165.1434 C.3     1  UNL1        0.1033
     13 C         140.3658  140.0264  165.9520 C.2     1  UNL1        0.0164
     14 N         140.0990  138.6585  163.7593 N.3     1  UNL1       -0.2885
     15 C         141.3010  139.3467  163.1837 C.3     1  UNL1        0.0901
     16 H         139.6169  137.9838  163.2287 H       1  UNL1        0.1241
     17 C         141.7687  139.0069  161.7995 C.ar    1  UNL1       -0.0071
     18 C         141.2754  139.7996  160.6255 C.ar    1  UNL1       -0.0007
     19 C         141.7431  139.4597  159.2414 C.ar    1  UNL1        0.0294
     20 C         142.7039  138.3272  159.0313 C.ar    1  UNL1        0.1401
     21 F         143.1715  137.9874  157.6471 F       1  UNL1       -0.2042
     22 C         143.1971  137.5345  160.2053 C.ar    1  UNL1        0.0294
     23 C         142.7295  137.8743  161.5894 C.ar    1  UNL1       -0.0007
     24 C         145.1373  139.4171  164.3260 C.3     1  UNL1        0.1552
     25 N         144.6633  140.6228  163.5700 N.ar    1  UNL1       -0.2338
     26 N         145.5319  141.6000  162.8347 N.ar    1  UNL1       -0.1454
     27 C         144.6429  142.6442  162.2268 C.ar    1  UNL1        0.2206
     28 N         143.2250  142.3123  162.5864 N.ar    1  UNL1       -0.2075
     29 C         143.2376  141.0630  163.4166 C.ar    1  UNL1        0.1449
@<TRIPOS>BOND
     1    24    25    1
     2    25    26   ar
     3    26    27   ar
     4    27    28   ar
     5    28    29   ar
     6     1    29    1
     7     1     2    1
     8     2     3    1
     9     3     4    2
    10     4     5    1
    11     5     6    2
    12     5     7    1
    13     7     8    2
    14     8     9    1
    15     9    10    1
    16     9    11    2
    17    11    12    1
    18    12    13    1
    19    12    14    1
    20    14    15    1
    21    15    17    1
    22    17    18   ar
    23    18    19   ar
    24    19    20   ar
    25    20    21    1
    26    20    22   ar
    27    22    23   ar
    28    29    25   ar
    29    15     1    1
    30    23    17   ar
    31    13     2    2
    32    13     7    1
    33    14    16    1
@<TRIPOS>MOLECULE
*****
 29 33 0 0 0
SMALL
GASTEIGER

@<TRIPOS>ATOM
      1 C         141.5251  141.5156  164.3818 C.3     1  UNL1        0.1182
      2 C         141.8813  142.0957  163.0451 C.2     1  UNL1        0.0844
      3 N         142.9054  141.4192  162.1828 N.2     1  UNL1       -0.1600
      4 N         143.2616  141.9993  160.8461 N.am    1  UNL1       -0.0757
      5 C         142.5938  143.2558  160.3718 C.2     1  UNL1        0.2859
      6 O         142.9500  143.8359  159.0351 O.2     1  UNL1       -0.2665
      7 C         141.5697  143.9324  161.2341 C.2     1  UNL1        0.0578
      8 C         140.9019  145.1890  160.7598 C.2     1  UNL1        0.0338
      9 C         139.8778  145.8655  161.6221 C.2     1  UNL1        0.1377
     10 F         139.2100  147.1221  161.1478 F       1  UNL1       -0.2045
     11 C         139.5216  145.2854  162.9588 C.2     1  UNL1        0.0234
     12 C         140.1894  144.0288  163.4331 C.3     1  UNL1        0.1033
     13 C         141.2135  143.3523  162.5707 C.2     1  UNL1        0.0164
     14 N         139.8332  143.4488  164.7697 N.3     1  UNL1       -0.2885
     15 C         140.5010  142.1922  165.2441 C.3     1  UNL1        0.0901
     16 H         139.1611  143.8928  165.3357 H       1  UNL1        0.1241
     17 C         140.1448  141.6121  166.5807 C.ar    1  UNL1       -0.0071
     18 C         139.3396  140.3490  166.6597 C.ar    1  UNL1       -0.0007
     19 C         138.9834  139.7690  167.9963 C.ar    1  UNL1        0.0294
     20 C         139.4323  140.4521  169.2540 C.ar    1  UNL1        0.1401
     21 F         139.0761  139.8720  170.5907 F       1  UNL1       -0.2042
     22 C         140.2374  141.7152  169.1751 C.ar    1  UNL1        0.0294
     23 C         140.5937  142.2952  167.8385 C.ar    1  UNL1       -0.0007
     24 C         140.6443  138.4684  163.6150 C.3     1  UNL1        0.1552
     25 N         141.7880  138.8584  164.5036 N.ar    1  UNL1       -0.2338
     26 N         142.7278  137.9161  165.1958 N.ar    1  UNL1       -0.1454
     27 C         143.7134  138.7345  165.9761 C.ar    1  UNL1        0.2206
     28 N         143.3828  140.1824  165.7661 N.ar    1  UNL1       -0.2075
     29 C         142.1929  140.2590  164.8561 C.ar    1  UNL1        0.1449
@<TRIPOS>BOND
     1    24    25    1
     2    25    26   ar
     3    26    27   ar
     4    27    28   ar
     5    28    29   ar
     6     1    29    1
     7     1     2    1
     8     2     3    1
     9     3     4    2
    10     4     5    1
    11     5     6    2
    12     5     7    1
    13     7     8    2
    14     8     9    1
    15     9    10    1
    16     9    11    2
    17    11    12    1
    18    12    13    1
    19    12    14    1
    20    14    15    1
    21    15    17    1
    22    17    18   ar
    23    18    19   ar
    24    19    20   ar
    25    20    21    1
    26    20    22   ar
    27    22    23   ar
    28    29    25   ar
    29    15     1    1
    30    23    17   ar
    31    13     2    2
    32    13     7    1
    33    14    16    1
@<TRIPOS>MOLECULE
*****
 29 33 0 0 0
SMALL
GASTEIGER

@<TRIPOS>ATOM
      1 C         141.2136  142.5733  163.3773 C.3     1  UNL1        0.1182
      2 C         141.2086  142.2473  164.8415 C.2     1  UNL1        0.0844
      3 N         140.4741  143.1324  165.8044 N.2     1  UNL1       -0.1600
      4 N         140.4692  142.8064  167.2685 N.am    1  UNL1       -0.0757
      5 C         141.1986  141.5953  167.7697 C.2     1  UNL1        0.2859
      6 O         141.1936  141.2693  169.2339 O.2     1  UNL1       -0.2665
      7 C         141.9330  140.7102  166.8068 C.2     1  UNL1        0.0578
      8 C         142.6624  139.4991  167.3080 C.2     1  UNL1        0.0338
      9 C         143.3969  138.6141  166.3451 C.2     1  UNL1        0.1377
     10 F         144.1263  137.4030  166.8463 F       1  UNL1       -0.2045
     11 C         143.4019  138.9400  164.8809 C.2     1  UNL1        0.0234
     12 C         142.6724  140.1511  164.3797 C.3     1  UNL1        0.1033
     13 C         141.9380  141.0362  165.3427 C.2     1  UNL1        0.0164
     14 N         142.6774  140.4771  162.9156 N.3     1  UNL1       -0.2885
     15 C         141.9480  141.6882  162.4144 C.3     1  UNL1        0.0901
     16 H         143.1594  139.8962  162.2836 H       1  UNL1        0.1241
     17 C         141.9530  142.0142  160.9502 C.ar    1  UNL1       -0.0071
     18 C         140.8755  141.4734  160.0577 C.ar    1  UNL1       -0.0007
     19 C         140.8805  141.7994  158.5936 C.ar    1  UNL1        0.0294
     20 C         141.9631  142.6661  158.0219 C.ar    1  UNL1        0.1401
     21 F         141.9681  142.9921  156.5578 F       1  UNL1       -0.2042
     22 C         143.0406  143.2069  158.9144 C.ar    1  UNL1        0.0294
     23 C         143.0355  142.8809  160.3785 C.ar    1  UNL1       -0.0007
     24 C         138.0350  142.7362  162.6560 C.3     1  UNL1        0.1552
     25 N         139.0231  143.8592  162.5445 N.ar    1  UNL1       -0.2338
     26 N         138.7237  145.2544  162.0819 N.ar    1  UNL1       -0.1454
     27 C         139.9996  146.0417  162.1275 C.ar    1  UNL1        0.2206
     28 N         141.0876  145.1332  162.6183 N.ar    1  UNL1       -0.2075
     29 C         140.4841  143.7843  162.8760 C.ar    1  UNL1        0.1449
@<TRIPOS>BOND
     1    24    25    1
     2    25    26   ar
     3    26    27   ar
     4    27    28   ar
     5    28    29   ar
     6     1    29    1
     7     1     2    1
     8     2     3    1
     9     3     4    2
    10     4     5    1
    11     5     6    2
    12     5     7    1
    13     7     8    2
    14     8     9    1
    15     9    10    1
    16     9    11    2
    17    11    12    1
    18    12    13    1
    19    12    14    1
    20    14    15    1
    21    15    17    1
    22    17    18   ar
    23    18    19   ar
    24    19    20   ar
    25    20    21    1
    26    20    22   ar
    27    22    23   ar
    28    29    25   ar
    29    15     1    1
    30    23    17   ar
    31    13     2    2
    32    13     7    1
    33    14    16    1
@<TRIPOS>MOLECULE
*****
 29 33 0 0 0
SMALL
GASTEIGER

@<TRIPOS>ATOM
      1 C         141.3276  142.1639  164.1873 C.3     1  UNL1        0.1182
      2 C         141.2522  141.7877  165.6374 C.2     1  UNL1        0.0844
      3 N         142.2591  142.3321  166.6068 N.2     1  UNL1       -0.1600
      4 N         142.1836  141.9559  168.0569 N.am    1  UNL1       -0.0757
      5 C         141.1013  141.0354  168.5376 C.2     1  UNL1        0.2859
      6 O         141.0258  140.6592  169.9877 O.2     1  UNL1       -0.2665
      7 C         140.0944  140.4910  167.5682 C.2     1  UNL1        0.0578
      8 C         139.0120  139.5704  168.0488 C.2     1  UNL1        0.0338
      9 C         138.0051  139.0260  167.0795 C.2     1  UNL1        0.1377
     10 F         136.9228  138.1055  167.5601 F       1  UNL1       -0.2045
     11 C         138.0805  139.4022  165.6293 C.2     1  UNL1        0.0234
     12 C         139.1629  140.3228  165.1486 C.3     1  UNL1        0.1033
     13 C         140.1698  140.8672  166.1181 C.2     1  UNL1        0.0164
     14 N         139.2384  140.6990  163.6986 N.3     1  UNL1       -0.2885
     15 C         140.3207  141.6196  163.2179 C.3     1  UNL1        0.0901
     16 H         138.5775  140.3417  163.0623 H       1  UNL1        0.1241
     17 C         140.3962  141.9957  161.7677 C.ar    1  UNL1       -0.0071
     18 C         139.7329  143.2507  161.2830 C.ar    1  UNL1       -0.0007
     19 C         139.8084  143.6269  159.8329 C.ar    1  UNL1        0.0294
     20 C         140.5471  142.7480  158.8676 C.ar    1  UNL1        0.1401
     21 F         140.6225  143.1242  157.4174 F       1  UNL1       -0.2042
     22 C         141.2103  141.4930  159.3523 C.ar    1  UNL1        0.0294
     23 C         141.1349  141.1168  160.8024 C.ar    1  UNL1       -0.0007
     24 C         144.1774  141.2569  162.8811 C.3     1  UNL1        0.1552
     25 N         143.7199  142.6676  163.1062 N.ar    1  UNL1       -0.2338
     26 N         144.4919  143.9090  162.7705 N.ar    1  UNL1       -0.1454
     27 C         143.6592  145.0932  163.1633 C.ar    1  UNL1        0.2206
     28 N         142.3725  144.5836  163.7419 N.ar    1  UNL1       -0.2075
     29 C         142.4100  143.0845  163.7066 C.ar    1  UNL1        0.1449
@<TRIPOS>BOND
     1    24    25    1
     2    25    26   ar
     3    26    27   ar
     4    27    28   ar
     5    28    29   ar
     6     1    29    1
     7     1     2    1
     8     2     3    1
     9     3     4    2
    10     4     5    1
    11     5     6    2
    12     5     7    1
    13     7     8    2
    14     8     9    1
    15     9    10    1
    16     9    11    2
    17    11    12    1
    18    12    13    1
    19    12    14    1
    20    14    15    1
    21    15    17    1
    22    17    18   ar
    23    18    19   ar
    24    19    20   ar
    25    20    21    1
    26    20    22   ar
    27    22    23   ar
    28    29    25   ar
    29    15     1    1
    30    23    17   ar
    31    13     2    2
    32    13     7    1
    33    14    16    1
