@<TRIPOS>MOLECULE
*****
 31 36 0 0 0
SMALL
GASTEIGER

@<TRIPOS>ATOM
      1 C         138.3335  138.8911  167.5070 C.2     1  UNL1       -0.0198
      2 C         137.9703  137.8389  166.5016 C.2     1  UNL1       -0.0042
      3 C         138.4723  137.9433  165.0920 C.2     1  UNL1        0.0006
      4 C         139.3375  139.1000  164.6877 C.2     1  UNL1        0.0111
      5 C         139.9760  139.4673  163.3811 C.2     1  UNL1       -0.0044
      6 C         140.7338  140.7466  163.5788 C.2     1  UNL1        0.0689
      7 N         140.5636  141.1700  165.0077 N.2     1  UNL1       -0.2526
      8 C         139.7007  140.1522  165.6931 C.2     1  UNL1        0.0627
      9 C         139.1986  140.0478  167.1027 C.3     1  UNL1        0.0717
     10 C         141.4808  141.3607  162.4322 C.3     1  UNL1        0.0949
     11 N         141.4701  140.6955  161.0877 N.3     1  UNL1       -0.2887
     12 C         140.7123  139.4162  160.8900 C.3     1  UNL1        0.1161
     13 C         139.9653  138.8021  162.0367 C.3     1  UNL1        0.0510
     14 H         142.4423  140.5021  160.8472 H       1  UNL1        0.1239
     15 C         142.2386  142.6400  162.6300 C.3     1  UNL1        0.0252
     16 C         141.5197  143.8745  163.0874 C.3     1  UNL1        0.0339
     17 C         142.2775  145.1538  163.2852 C.3     1  UNL1        0.1422
     18 O         143.7542  145.1986  163.0255 O.3     1  UNL1       -0.3538
     19 C         144.4730  143.9642  162.5680 C.3     1  UNL1        0.1422
     20 C         143.7152  142.6848  162.3703 C.3     1  UNL1        0.0339
     21 C         140.7016  138.7510  159.5456 C.ar    1  UNL1        0.1318
     22 N         141.8444  138.0068  158.9209 N.ar    1  UNL1       -0.2282
     23 C         141.3952  137.5091  157.5791 C.ar    1  UNL1        0.1177
     24 C         139.9748  137.9456  157.3744 C.ar    1  UNL1        0.0942
     25 N         139.5462  138.7131  158.5898 N.ar    1  UNL1       -0.3385
     26 H         138.6617  139.1205  158.7348 H       1  UNL1        0.1672
     27 C         142.2214  136.7143  156.6117 C.ar    1  UNL1        0.1075
     28 C         141.7144  135.6449  155.6902 C.ar    1  UNL1        0.0576
     29 S         142.8794  135.1191  154.9051 S.2     1  UNL1       -0.0639
     30 C         144.1063  135.8637  155.3413 C.ar    1  UNL1        0.1345
     31 N         143.6997  136.8496  156.3961 N.ar    1  UNL1       -0.2347
@<TRIPOS>BOND
     1     1     2    2
     2     2     3    1
     3     3     4    2
     4     4     5    1
     5     5     6    2
     6     6     7    1
     7     7     8    2
     8     8     9    1
     9     6    10    1
    10    10    15    1
    11    15    16    1
    12    16    17    1
    13    17    18    1
    14    18    19    1
    15    19    20    1
    16    10    11    1
    17    11    12    1
    18    12    21    1
    19    21    22   ar
    20    22    23   ar
    21    23    27    1
    22    27    28   ar
    23    28    29   ar
    24    29    30   ar
    25    30    31   ar
    26    23    24   ar
    27    24    25   ar
    28    12    13    1
    29     9     1    1
    30    20    15    1
    31    25    21   ar
    32     8     4    1
    33    31    27   ar
    34    13     5    1
    35    11    14    1
    36    25    26    1
@<TRIPOS>MOLECULE
*****
 31 36 0 0 0
SMALL
GASTEIGER

@<TRIPOS>ATOM
      1 C         142.9402  139.3530  167.6435 C.2     1  UNL1       -0.0198
      2 C         143.4780  138.2893  166.7329 C.2     1  UNL1       -0.0042
      3 C         143.2987  138.4116  165.2487 C.2     1  UNL1        0.0006
      4 C         142.5817  139.5976  164.6750 C.2     1  UNL1        0.0111
      5 C         142.2557  139.9874  163.2637 C.2     1  UNL1       -0.0044
      6 C         141.5165  141.2920  163.3020 C.2     1  UNL1        0.0689
      7 N         141.3856  141.7086  164.7371 N.2     1  UNL1       -0.2526
      8 C         142.0439  140.6614  165.5856 C.2     1  UNL1        0.0627
      9 C         142.2232  140.5391  167.0698 C.3     1  UNL1        0.0717
     10 C         141.0581  141.9321  162.0253 C.3     1  UNL1        0.0949
     11 N         141.3389  141.2675  160.7101 N.3     1  UNL1       -0.2887
     12 C         142.0781  139.9629  160.6718 C.3     1  UNL1        0.1161
     13 C         142.5366  139.3228  161.9486 C.3     1  UNL1        0.0510
     14 H         141.8813  141.9297  160.1555 H       1  UNL1        0.1239
     15 C         140.3189  143.2367  162.0636 C.3     1  UNL1        0.0252
     16 C         140.8981  144.4469  161.3930 C.3     1  UNL1        0.0339
     17 C         140.1589  145.7515  161.4313 C.3     1  UNL1        0.1422
     18 O         138.8404  145.8460  162.1402 O.3     1  UNL1       -0.3538
     19 C         138.2611  144.6357  162.8109 C.3     1  UNL1        0.1422
     20 C         139.0004  143.3311  162.7726 C.3     1  UNL1        0.0339
     21 C         142.3590  139.2983  159.3567 C.ar    1  UNL1        0.1318
     22 N         142.0223  137.8821  158.9948 N.ar    1  UNL1       -0.2282
     23 C         142.4811  137.6418  157.5870 C.ar    1  UNL1        0.1177
     24 C         143.1012  138.9096  157.0788 C.ar    1  UNL1        0.0942
     25 N         143.0258  139.9333  158.1725 N.ar    1  UNL1       -0.3385
     26 H         143.3559  140.8594  158.1221 H       1  UNL1        0.1672
     27 C         142.3437  136.3590  156.8218 C.ar    1  UNL1        0.1075
     28 C         143.1911  135.1336  156.9957 C.ar    1  UNL1        0.0576
     29 S         142.7059  134.0937  156.0297 S.2     1  UNL1       -0.0639
     30 C         141.5587  134.6764  155.2587 C.ar    1  UNL1        0.1345
     31 N         141.3349  136.0765  155.7483 N.ar    1  UNL1       -0.2347
@<TRIPOS>BOND
     1     1     2    2
     2     2     3    1
     3     3     4    2
     4     4     5    1
     5     5     6    2
     6     6     7    1
     7     7     8    2
     8     8     9    1
     9     6    10    1
    10    10    15    1
    11    15    16    1
    12    16    17    1
    13    17    18    1
    14    18    19    1
    15    19    20    1
    16    10    11    1
    17    11    12    1
    18    12    21    1
    19    21    22   ar
    20    22    23   ar
    21    23    27    1
    22    27    28   ar
    23    28    29   ar
    24    29    30   ar
    25    30    31   ar
    26    23    24   ar
    27    24    25   ar
    28    12    13    1
    29     9     1    1
    30    20    15    1
    31    25    21   ar
    32     8     4    1
    33    31    27   ar
    34    13     5    1
    35    11    14    1
    36    25    26    1
@<TRIPOS>MOLECULE
*****
 31 36 0 0 0
SMALL
GASTEIGER

@<TRIPOS>ATOM
      1 C         143.9763  130.7658  155.9422 C.2     1  UNL1       -0.0198
      2 C         144.7441  131.4470  157.0360 C.2     1  UNL1       -0.0042
      3 C         144.4331  132.8693  157.3971 C.2     1  UNL1        0.0006
      4 C         143.3543  133.6104  156.6643 C.2     1  UNL1        0.0111
      5 C         142.8285  135.0088  156.7982 C.2     1  UNL1       -0.0044
      6 C         141.7356  135.1919  155.7872 C.2     1  UNL1        0.0689
      7 N         141.5861  133.9066  155.0284 N.2     1  UNL1       -0.2526
      8 C         142.5865  132.9292  155.5706 C.2     1  UNL1        0.0627
      9 C         142.8975  131.5069  155.2095 C.3     1  UNL1        0.0717
     10 C         141.0179  136.5053  155.6881 C.3     1  UNL1        0.0949
     11 N         141.3930  137.6357  156.6001 N.3     1  UNL1       -0.2887
     12 C         142.4858  137.4526  157.6111 C.3     1  UNL1        0.1161
     13 C         143.2036  136.1391  157.7102 C.3     1  UNL1        0.0510
     14 H         140.5514  137.8874  157.1185 H       1  UNL1        0.1239
     15 C         139.9251  136.6884  154.6771 C.3     1  UNL1        0.0252
     16 C         140.1306  136.2388  153.2609 C.3     1  UNL1        0.0339
     17 C         139.0377  136.4219  152.2498 C.3     1  UNL1        0.1422
     18 O         137.7394  137.0545  152.6550 O.3     1  UNL1       -0.3538
     19 C         137.5340  137.5041  154.0712 C.3     1  UNL1        0.1422
     20 C         138.6268  137.3210  155.0823 C.3     1  UNL1        0.0339
     21 C         142.8609  138.5829  158.5231 C.ar    1  UNL1        0.1318
     22 N         143.5017  138.4513  159.8729 N.ar    1  UNL1       -0.2282
     23 C         143.6979  139.8303  160.4294 C.ar    1  UNL1        0.1177
     24 C         143.1784  140.8143  159.4235 C.ar    1  UNL1        0.0942
     25 N         142.6611  140.0434  158.2453 N.ar    1  UNL1       -0.3385
     26 H         142.2607  140.4283  157.4325 H       1  UNL1        0.1672
     27 C         144.3067  140.1664  161.7584 C.ar    1  UNL1        0.1075
     28 C         144.2134  139.3383  163.0056 C.ar    1  UNL1        0.0576
     29 S         144.9648  140.0497  164.0916 S.2     1  UNL1       -0.0639
     30 C         145.5224  141.3175  163.5156 C.ar    1  UNL1        0.1345
     31 N         145.1157  141.3896  162.0736 N.ar    1  UNL1       -0.2347
@<TRIPOS>BOND
     1     1     2    2
     2     2     3    1
     3     3     4    2
     4     4     5    1
     5     5     6    2
     6     6     7    1
     7     7     8    2
     8     8     9    1
     9     6    10    1
    10    10    15    1
    11    15    16    1
    12    16    17    1
    13    17    18    1
    14    18    19    1
    15    19    20    1
    16    10    11    1
    17    11    12    1
    18    12    21    1
    19    21    22   ar
    20    22    23   ar
    21    23    27    1
    22    27    28   ar
    23    28    29   ar
    24    29    30   ar
    25    30    31   ar
    26    23    24   ar
    27    24    25   ar
    28    12    13    1
    29     9     1    1
    30    20    15    1
    31    25    21   ar
    32     8     4    1
    33    31    27   ar
    34    13     5    1
    35    11    14    1
    36    25    26    1
@<TRIPOS>MOLECULE
*****
 31 36 0 0 0
SMALL
GASTEIGER

@<TRIPOS>ATOM
      1 C         140.3251  145.7252  158.1667 C.2     1  UNL1       -0.0198
      2 C         140.1364  144.8672  156.9509 C.2     1  UNL1       -0.0042
      3 C         140.7279  143.4895  156.9061 C.2     1  UNL1        0.0006
      4 C         141.5080  142.9697  158.0770 C.2     1  UNL1        0.0111
      5 C         142.2029  141.6628  158.3196 C.2     1  UNL1       -0.0044
      6 C         142.8211  141.7129  159.6854 C.2     1  UNL1        0.0689
      7 N         142.5083  143.0510  160.2869 N.2     1  UNL1       -0.2526
      8 C         141.6967  143.8277  159.2928 C.2     1  UNL1        0.0627
      9 C         141.1052  145.2054  159.3377 C.3     1  UNL1        0.0717
     10 C         143.5890  140.5338  160.2049 C.3     1  UNL1        0.0949
     11 N         143.7387  139.3043  159.3586 N.3     1  UNL1       -0.2887
     12 C         143.1205  139.2541  157.9928 C.3     1  UNL1        0.1161
     13 C         142.3526  140.4334  157.4733 C.3     1  UNL1        0.0510
     14 H         143.3407  138.5304  159.8906 H       1  UNL1        0.1239
     15 C         144.2071  140.5839  161.5706 C.3     1  UNL1        0.0252
     16 C         145.0182  141.7763  161.9834 C.3     1  UNL1        0.0339
     17 C         145.6364  141.8265  163.3492 C.3     1  UNL1        0.1422
     18 O         145.4435  140.6843  164.3022 O.3     1  UNL1       -0.3538
     19 C         144.6323  139.4920  163.8894 C.3     1  UNL1        0.1422
     20 C         144.0141  139.4418  162.5236 C.3     1  UNL1        0.0339
     21 C         143.2702  138.0248  157.1465 C.ar    1  UNL1        0.1318
     22 N         142.7430  136.6592  157.4741 N.ar    1  UNL1       -0.2282
     23 C         143.1204  135.7356  156.3540 C.ar    1  UNL1        0.1177
     24 C         143.8808  136.5303  155.3341 C.ar    1  UNL1        0.0942
     25 N         143.9734  137.9451  155.8239 N.ar    1  UNL1       -0.3385
     26 H         144.4177  138.6905  155.3589 H       1  UNL1        0.1672
     27 C         142.7946  134.2739  156.2688 C.ar    1  UNL1        0.1075
     28 C         142.0698  133.5963  155.1439 C.ar    1  UNL1        0.0576
     29 S         141.9636  132.1368  155.4735 S.2     1  UNL1       -0.0639
     30 C         142.6227  131.9124  156.8021 C.ar    1  UNL1        0.1345
     31 N         143.1363  133.2333  157.2937 N.ar    1  UNL1       -0.2347
@<TRIPOS>BOND
     1     1     2    2
     2     2     3    1
     3     3     4    2
     4     4     5    1
     5     5     6    2
     6     6     7    1
     7     7     8    2
     8     8     9    1
     9     6    10    1
    10    10    15    1
    11    15    16    1
    12    16    17    1
    13    17    18    1
    14    18    19    1
    15    19    20    1
    16    10    11    1
    17    11    12    1
    18    12    21    1
    19    21    22   ar
    20    22    23   ar
    21    23    27    1
    22    27    28   ar
    23    28    29   ar
    24    29    30   ar
    25    30    31   ar
    26    23    24   ar
    27    24    25   ar
    28    12    13    1
    29     9     1    1
    30    20    15    1
    31    25    21   ar
    32     8     4    1
    33    31    27   ar
    34    13     5    1
    35    11    14    1
    36    25    26    1
@<TRIPOS>MOLECULE
*****
 31 36 0 0 0
SMALL
GASTEIGER

@<TRIPOS>ATOM
      1 C         143.4619  135.5189  155.7552 C.2     1  UNL1       -0.0198
      2 C         142.3859  135.9363  156.7132 C.2     1  UNL1       -0.0042
      3 C         142.2931  137.3649  157.1609 C.2     1  UNL1        0.0006
      4 C         143.2763  138.3762  156.6505 C.2     1  UNL1        0.0111
      5 C         143.4328  139.8449  156.9121 C.2     1  UNL1       -0.0044
      6 C         144.6056  140.3352  156.1158 C.2     1  UNL1        0.0689
      7 N         145.1740  139.1696  155.3620 N.2     1  UNL1       -0.2526
      8 C         144.3524  137.9588  155.6925 C.2     1  UNL1        0.0627
      9 C         144.4452  136.5302  155.2448 C.3     1  UNL1        0.0717
     10 C         145.0044  141.7798  156.1799 C.3     1  UNL1        0.0949
     11 N         144.2305  142.7341  157.0405 N.3     1  UNL1       -0.2887
     12 C         143.0577  142.2438  157.8368 C.3     1  UNL1        0.1161
     13 C         142.6588  140.7991  157.7726 C.3     1  UNL1        0.0510
     14 H         143.8819  143.4692  156.4251 H       1  UNL1        0.1239
     15 C         146.1771  142.2701  155.3836 C.3     1  UNL1        0.0252
     16 C         145.9755  143.2885  154.3010 C.3     1  UNL1        0.0339
     17 C         147.1482  143.7789  153.5046 C.3     1  UNL1        0.1422
     18 O         148.5227  143.2509  153.7909 O.3     1  UNL1       -0.3538
     19 C         148.7244  142.2325  154.8736 C.3     1  UNL1        0.1422
     20 C         147.5516  141.7421  155.6700 C.3     1  UNL1        0.0339
     21 C         142.2837  143.1980  158.6973 C.ar    1  UNL1        0.1318
     22 N         141.3628  142.8240  159.8207 N.ar    1  UNL1       -0.2282
     23 C         140.8047  144.0886  160.4031 C.ar    1  UNL1        0.1177
     24 C         141.3807  145.2442  159.6397 C.ar    1  UNL1        0.0942
     25 N         142.2947  144.6938  158.5854 N.ar    1  UNL1       -0.3385
     26 H         142.8112  145.2216  157.9344 H       1  UNL1        0.1672
     27 C         139.8401  144.1813  161.5480 C.ar    1  UNL1        0.1075
     28 C         140.0965  144.8522  162.8649 C.ar    1  UNL1        0.0576
     29 S         138.8645  144.7049  163.7078 S.2     1  UNL1       -0.0639
     30 C         137.8466  143.9431  162.9118 C.ar    1  UNL1        0.1345
     31 N         138.4496  143.6194  161.5770 N.ar    1  UNL1       -0.2347
@<TRIPOS>BOND
     1     1     2    2
     2     2     3    1
     3     3     4    2
     4     4     5    1
     5     5     6    2
     6     6     7    1
     7     7     8    2
     8     8     9    1
     9     6    10    1
    10    10    15    1
    11    15    16    1
    12    16    17    1
    13    17    18    1
    14    18    19    1
    15    19    20    1
    16    10    11    1
    17    11    12    1
    18    12    21    1
    19    21    22   ar
    20    22    23   ar
    21    23    27    1
    22    27    28   ar
    23    28    29   ar
    24    29    30   ar
    25    30    31   ar
    26    23    24   ar
    27    24    25   ar
    28    12    13    1
    29     9     1    1
    30    20    15    1
    31    25    21   ar
    32     8     4    1
    33    31    27   ar
    34    13     5    1
    35    11    14    1
    36    25    26    1
@<TRIPOS>MOLECULE
*****
 31 36 0 0 0
SMALL
GASTEIGER

@<TRIPOS>ATOM
      1 C         141.2288  145.0880  159.4040 C.2     1  UNL1       -0.0198
      2 C         141.8480  144.6450  158.1116 C.2     1  UNL1       -0.0042
      3 C         142.1237  143.1902  157.8718 C.2     1  UNL1        0.0006
      4 C         141.7802  142.1783  158.9244 C.2     1  UNL1        0.0111
      5 C         141.9342  140.6870  158.9714 C.2     1  UNL1       -0.0044
      6 C         141.4103  140.2082  160.2929 C.2     1  UNL1        0.0689
      7 N         140.9323  141.4037  161.0626 N.2     1  UNL1       -0.2526
      8 C         141.1610  142.6213  160.2168 C.2     1  UNL1        0.0627
      9 C         140.8853  144.0761  160.4566 C.3     1  UNL1        0.0717
     10 C         141.4360  138.7456  160.6245 C.3     1  UNL1        0.0949
     11 N         141.9858  137.7616  159.6347 N.3     1  UNL1       -0.2887
     12 C         142.5098  138.2404  158.3132 C.3     1  UNL1        0.1161
     13 C         142.4840  139.7032  157.9816 C.3     1  UNL1        0.0510
     14 H         141.2377  137.0986  159.4320 H       1  UNL1        0.1239
     15 C         140.9121  138.2669  161.9459 C.3     1  UNL1        0.0252
     16 C         139.4347  138.1165  162.1570 C.3     1  UNL1        0.0339
     17 C         138.9107  137.6378  163.4784 C.3     1  UNL1        0.1422
     18 O         139.8642  137.3093  164.5888 O.3     1  UNL1       -0.3538
     19 C         141.3416  137.4596  164.3778 C.3     1  UNL1        0.1422
     20 C         141.8656  137.9384  163.0563 C.3     1  UNL1        0.0339
     21 C         143.0595  137.2566  157.3234 C.ar    1  UNL1        0.1318
     22 N         142.9398  135.7636  157.4047 N.ar    1  UNL1       -0.2282
     23 C         143.6318  135.1773  156.2100 C.ar    1  UNL1        0.1177
     24 C         144.1792  136.3079  155.3902 C.ar    1  UNL1        0.0942
     25 N         143.8255  137.5930  156.0783 N.ar    1  UNL1       -0.3385
     26 H         144.0557  138.4983  155.7674 H       1  UNL1        0.1672
     27 C         143.7547  133.7167  155.8910 C.ar    1  UNL1        0.1075
     28 C         144.5609  132.7114  156.6588 C.ar    1  UNL1        0.0576
     29 S         144.3975  131.3785  155.9905 S.2     1  UNL1       -0.0639
     30 C         143.4904  131.5600  154.8097 C.ar    1  UNL1        0.1345
     31 N         143.0932  133.0052  154.7482 N.ar    1  UNL1       -0.2347
@<TRIPOS>BOND
     1     1     2    2
     2     2     3    1
     3     3     4    2
     4     4     5    1
     5     5     6    2
     6     6     7    1
     7     7     8    2
     8     8     9    1
     9     6    10    1
    10    10    15    1
    11    15    16    1
    12    16    17    1
    13    17    18    1
    14    18    19    1
    15    19    20    1
    16    10    11    1
    17    11    12    1
    18    12    21    1
    19    21    22   ar
    20    22    23   ar
    21    23    27    1
    22    27    28   ar
    23    28    29   ar
    24    29    30   ar
    25    30    31   ar
    26    23    24   ar
    27    24    25   ar
    28    12    13    1
    29     9     1    1
    30    20    15    1
    31    25    21   ar
    32     8     4    1
    33    31    27   ar
    34    13     5    1
    35    11    14    1
    36    25    26    1
@<TRIPOS>MOLECULE
*****
 31 36 0 0 0
SMALL
GASTEIGER

@<TRIPOS>ATOM
      1 C         140.3437  145.5177  160.3401 C.2     1  UNL1       -0.0198
      2 C         140.3574  145.0333  158.9206 C.2     1  UNL1       -0.0042
      3 C         140.8707  143.6604  158.6015 C.2     1  UNL1        0.0006
      4 C         141.3703  142.7720  159.7019 C.2     1  UNL1        0.0111
      5 C         141.9307  141.3807  159.6923 C.2     1  UNL1       -0.0044
      6 C         142.2633  141.0051  161.1060 C.2     1  UNL1        0.0689
      7 N         141.9085  142.1643  161.9892 N.2     1  UNL1       -0.2526
      8 C         141.3565  143.2564  161.1214 C.2     1  UNL1        0.0627
      9 C         140.8432  144.6292  161.4406 C.3     1  UNL1        0.0717
     10 C         142.8464  139.6561  161.4062 C.3     1  UNL1        0.0949
     11 N         143.0968  138.6825  160.2928 N.3     1  UNL1       -0.2887
     12 C         142.7642  139.0580  158.8792 C.3     1  UNL1        0.1161
     13 C         142.1811  140.4072  158.5789 C.3     1  UNL1        0.0510
     14 H         142.5588  137.8433  160.5089 H       1  UNL1        0.1239
     15 C         143.1790  139.2806  162.8198 C.3     1  UNL1        0.0252
     16 C         144.5262  139.6158  163.3876 C.3     1  UNL1        0.0339
     17 C         144.8589  139.2402  164.8013 C.3     1  UNL1        0.1422
     18 O         143.8443  138.5295  165.6470 O.3     1  UNL1       -0.3538
     19 C         142.4970  138.1943  165.0792 C.3     1  UNL1        0.1422
     20 C         142.1644  138.5698  163.6655 C.3     1  UNL1        0.0339
     21 C         143.0146  138.0846  157.7658 C.ar    1  UNL1        0.1318
     22 N         142.6696  136.6248  157.7767 N.ar    1  UNL1       -0.2282
     23 C         143.0958  136.0380  156.4636 C.ar    1  UNL1        0.1177
     24 C         143.7040  137.1351  155.6412 C.ar    1  UNL1        0.0942
     25 N         143.6539  138.3999  156.4460 N.ar    1  UNL1       -0.3385
     26 H         143.9828  139.2822  156.1585 H       1  UNL1        0.1672
     27 C         142.9408  134.6056  156.0463 C.ar    1  UNL1        0.1075
     28 C         141.6882  133.9719  155.5177 C.ar    1  UNL1        0.0576
     29 S         141.9845  132.5300  155.2290 S.2     1  UNL1       -0.0639
     30 C         143.4202  132.2727  155.5792 C.ar    1  UNL1        0.1345
     31 N         144.0112  133.5555  156.0844 N.ar    1  UNL1       -0.2347
@<TRIPOS>BOND
     1     1     2    2
     2     2     3    1
     3     3     4    2
     4     4     5    1
     5     5     6    2
     6     6     7    1
     7     7     8    2
     8     8     9    1
     9     6    10    1
    10    10    15    1
    11    15    16    1
    12    16    17    1
    13    17    18    1
    14    18    19    1
    15    19    20    1
    16    10    11    1
    17    11    12    1
    18    12    21    1
    19    21    22   ar
    20    22    23   ar
    21    23    27    1
    22    27    28   ar
    23    28    29   ar
    24    29    30   ar
    25    30    31   ar
    26    23    24   ar
    27    24    25   ar
    28    12    13    1
    29     9     1    1
    30    20    15    1
    31    25    21   ar
    32     8     4    1
    33    31    27   ar
    34    13     5    1
    35    11    14    1
    36    25    26    1
@<TRIPOS>MOLECULE
*****
 31 36 0 0 0
SMALL
GASTEIGER

@<TRIPOS>ATOM
      1 C         148.0475  142.7528  152.1567 C.2     1  UNL1       -0.0198
      2 C         148.0685  143.5788  153.4086 C.2     1  UNL1       -0.0042
      3 C         147.2927  143.1347  154.6132 C.2     1  UNL1        0.0006
      4 C         146.4961  141.8646  154.5659 C.2     1  UNL1        0.0111
      5 C         145.6392  141.1786  155.5882 C.2     1  UNL1       -0.0044
      6 C         145.0887  139.9286  154.9681 C.2     1  UNL1        0.0689
      7 N         145.6053  139.8421  153.5625 N.2     1  UNL1       -0.2526
      8 C         146.4752  141.0386  153.3140 C.2     1  UNL1        0.0627
      9 C         147.2509  141.4827  152.1094 C.3     1  UNL1        0.0717
     10 C         144.1881  139.0307  155.7634 C.3     1  UNL1        0.0949
     11 N         143.8379  139.3827  157.1789 N.3     1  UNL1       -0.2887
     12 C         144.3884  140.6327  157.7990 C.3     1  UNL1        0.1161
     13 C         145.2891  141.5306  157.0036 C.3     1  UNL1        0.0510
     14 H         144.1472  138.6043  157.7610 H       1  UNL1        0.1239
     15 C         143.6376  137.7808  155.1434 C.3     1  UNL1        0.0252
     16 C         144.0911  136.4377  155.6337 C.3     1  UNL1        0.0339
     17 C         143.5406  135.1877  155.0137 C.3     1  UNL1        0.1422
     18 O         142.5365  135.2808  153.9032 O.3     1  UNL1       -0.3538
     19 C         142.0830  136.6239  153.4128 C.3     1  UNL1        0.1422
     20 C         142.6335  137.8738  154.0329 C.3     1  UNL1        0.0339
     21 C         144.0383  140.9848  159.2145 C.ar    1  UNL1        0.1318
     22 N         143.7893  142.3660  159.7437 N.ar    1  UNL1       -0.2282
     23 C         143.4729  142.2522  161.2055 C.ar    1  UNL1        0.1177
     24 C         143.5263  140.8007  161.5798 C.ar    1  UNL1        0.0942
     25 N         143.8757  140.0173  160.3492 N.ar    1  UNL1       -0.3385
     26 H         143.9801  139.0398  160.2957 H       1  UNL1        0.1672
     27 C         143.1583  143.3903  162.1306 C.ar    1  UNL1        0.1075
     28 C         144.1296  144.0800  163.0421 C.ar    1  UNL1        0.0576
     29 S         143.3887  145.1544  163.7815 S.2     1  UNL1       -0.0639
     30 C         141.9594  145.1287  163.3270 C.ar    1  UNL1        0.1345
     31 N         141.8170  144.0384  162.3067 N.ar    1  UNL1       -0.2347
@<TRIPOS>BOND
     1     1     2    2
     2     2     3    1
     3     3     4    2
     4     4     5    1
     5     5     6    2
     6     6     7    1
     7     7     8    2
     8     8     9    1
     9     6    10    1
    10    10    15    1
    11    15    16    1
    12    16    17    1
    13    17    18    1
    14    18    19    1
    15    19    20    1
    16    10    11    1
    17    11    12    1
    18    12    21    1
    19    21    22   ar
    20    22    23   ar
    21    23    27    1
    22    27    28   ar
    23    28    29   ar
    24    29    30   ar
    25    30    31   ar
    26    23    24   ar
    27    24    25   ar
    28    12    13    1
    29     9     1    1
    30    20    15    1
    31    25    21   ar
    32     8     4    1
    33    31    27   ar
    34    13     5    1
    35    11    14    1
    36    25    26    1
@<TRIPOS>MOLECULE
*****
 31 36 0 0 0
SMALL
GASTEIGER

@<TRIPOS>ATOM
      1 C         139.7136  147.6592  154.2189 C.2     1  UNL1       -0.0198
      2 C         139.0251  148.1192  155.4696 C.2     1  UNL1       -0.0042
      3 C         139.2828  147.4164  156.7695 C.2     1  UNL1        0.0006
      4 C         140.2289  146.2535  156.8187 C.2     1  UNL1        0.0111
      5 C         140.6771  145.3712  157.9459 C.2     1  UNL1       -0.0044
      6 C         141.6426  144.3658  157.3918 C.2     1  UNL1        0.0689
      7 N         141.7911  144.6267  155.9222 N.2     1  UNL1       -0.2526
      8 C         140.9174  145.7934  155.5680 C.2     1  UNL1        0.0627
      9 C         140.6597  146.4963  154.2681 C.3     1  UNL1        0.0717
     10 C         142.2618  143.3426  158.2972 C.3     1  UNL1        0.0949
     11 N         141.9155  143.3248  159.7566 N.3     1  UNL1       -0.2887
     12 C         140.9500  144.3302  160.3106 C.3     1  UNL1        0.1161
     13 C         140.3308  145.3534  159.4052 C.3     1  UNL1        0.0510
     14 H         142.7900  143.4433  160.2682 H       1  UNL1        0.1239
     15 C         143.2273  142.3373  157.7432 C.3     1  UNL1        0.0252
     16 C         144.6742  142.6977  157.5799 C.3     1  UNL1        0.0339
     17 C         145.6397  141.6923  157.0259 C.3     1  UNL1        0.1422
     18 O         145.1584  140.3265  156.6351 O.3     1  UNL1       -0.3538
     19 C         143.7115  139.9660  156.7984 C.3     1  UNL1        0.1422
     20 C         142.7460  140.9714  157.3524 C.3     1  UNL1        0.0339
     21 C         140.6037  144.3124  161.7700 C.ar    1  UNL1        0.1318
     22 N         141.2706  143.4797  162.8244 N.ar    1  UNL1       -0.2282
     23 C         140.6087  143.7769  164.1372 C.ar    1  UNL1        0.1177
     24 C         139.5327  144.7933  163.8942 C.ar    1  UNL1        0.0942
     25 N         139.5296  145.1243  162.4312 N.ar    1  UNL1       -0.3385
     26 H         138.9282  145.7624  161.9835 H       1  UNL1        0.1672
     27 C         140.9610  143.1651  165.4607 C.ar    1  UNL1        0.1075
     28 C         142.2734  142.5328  165.8183 C.ar    1  UNL1        0.0576
     29 S         142.1862  142.0551  167.2375 S.2     1  UNL1       -0.0639
     30 C         140.8199  142.3922  167.7570 C.ar    1  UNL1        0.1345
     31 N         140.0627  143.0782  166.6588 N.ar    1  UNL1       -0.2347
@<TRIPOS>BOND
     1     1     2    2
     2     2     3    1
     3     3     4    2
     4     4     5    1
     5     5     6    2
     6     6     7    1
     7     7     8    2
     8     8     9    1
     9     6    10    1
    10    10    15    1
    11    15    16    1
    12    16    17    1
    13    17    18    1
    14    18    19    1
    15    19    20    1
    16    10    11    1
    17    11    12    1
    18    12    21    1
    19    21    22   ar
    20    22    23   ar
    21    23    27    1
    22    27    28   ar
    23    28    29   ar
    24    29    30   ar
    25    30    31   ar
    26    23    24   ar
    27    24    25   ar
    28    12    13    1
    29     9     1    1
    30    20    15    1
    31    25    21   ar
    32     8     4    1
    33    31    27   ar
    34    13     5    1
    35    11    14    1
    36    25    26    1
