@<TRIPOS>MOLECULE
*****
 31 34 0 0 0
SMALL
GASTEIGER

@<TRIPOS>ATOM
      1 N         142.5791  140.0866  159.0161 N.am    1  UNL1       -0.2744
      2 C         141.1888  140.6472  158.9612 C.3     1  UNL1        0.1152
      3 C         143.0300  139.3161  160.2214 C.2     1  UNL1        0.2668
      4 O         144.4202  138.7555  160.2763 O.2     1  UNL1       -0.2683
      5 C         147.4245  141.9540  154.5122 C.ar    1  UNL1       -0.0065
      6 C         147.5735  142.7716  155.7609 C.ar    1  UNL1       -0.0033
      7 C         146.6342  142.5617  156.9114 C.ar    1  UNL1       -0.0048
      8 C         145.5459  141.5341  156.8132 C.ar    1  UNL1       -0.0245
      9 C         145.3969  140.7164  155.5646 C.ar    1  UNL1       -0.0263
     10 C         146.3362  140.9264  154.4140 C.ar    1  UNL1       -0.0075
     11 C         144.3086  139.6888  155.4663 C.3     1  UNL1        0.0277
     12 C         143.3693  139.4788  156.6169 C.3     1  UNL1        0.0248
     13 C         143.5184  140.2965  157.8656 C.3     1  UNL1        0.0804
     14 C         144.6066  141.3241  157.9637 C.3     1  UNL1        0.0458
     15 C         148.3638  142.1639  153.3617 C.3     1  UNL1        0.0992
     16 C         150.4307  143.7155  153.0964 C.3     1  UNL1        0.0899
     17 N         149.8129  142.4527  153.6196 N.3     1  UNL1       -0.2665
     18 C         150.6443  141.4787  154.4008 C.3     1  UNL1        0.0899
     19 C         142.0907  139.1061  161.3719 C.ar    1  UNL1        0.1347
     20 C         141.9699  140.1506  162.4417 C.ar    1  UNL1        0.0238
     21 C         141.0306  139.9406  163.5922 C.ar    1  UNL1        0.0032
     22 C         140.2121  138.6862  163.6730 C.ar    1  UNL1        0.0192
     23 C         140.3330  137.6418  162.6032 C.ar    1  UNL1        0.0989
     24 N         141.2722  137.8517  161.4527 N.ar    1  UNL1       -0.2393
     25 C         139.2729  138.4763  164.8235 C.ar    1  UNL1        0.0016
     26 C         138.8323  139.6445  165.6548 C.ar    1  UNL1        0.0024
     27 C         137.8931  139.4345  166.8053 C.ar    1  UNL1        0.0296
     28 C         137.3943  138.0564  167.1245 C.ar    1  UNL1        0.1401
     29 F         136.4550  137.8464  168.2750 F       1  UNL1       -0.2042
     30 C         137.8348  136.8882  166.2931 C.ar    1  UNL1        0.0296
     31 C         138.7741  137.0981  165.1426 C.ar    1  UNL1        0.0024
@<TRIPOS>BOND
     1    16    17    1
     2    17    18    1
     3    17    15    1
     4    15     5    1
     5     5     6   ar
     6     6     7   ar
     7     7     8   ar
     8     8     9   ar
     9     9    10   ar
    10     9    11    1
    11    11    12    1
    12    12    13    1
    13    13     1    1
    14     1     2    1
    15     1     3   am
    16     3     4    2
    17     3    19    1
    18    19    20   ar
    19    20    21   ar
    20    21    22   ar
    21    22    25    1
    22    25    26   ar
    23    26    27   ar
    24    27    28   ar
    25    28    29    1
    26    28    30   ar
    27    30    31   ar
    28    22    23   ar
    29    23    24   ar
    30    13    14    1
    31    10     5   ar
    32    24    19   ar
    33    14     8    1
    34    31    25   ar
@<TRIPOS>MOLECULE
*****
 31 34 0 0 0
SMALL
GASTEIGER

@<TRIPOS>ATOM
      1 N         139.5721  144.0941  157.5695 N.am    1  UNL1       -0.2744
      2 C         138.7759  142.8647  157.2456 C.3     1  UNL1        0.1152
      3 C         140.0963  144.3035  158.9592 C.2     1  UNL1        0.2668
      4 O         140.8924  145.5328  159.2831 O.2     1  UNL1       -0.2683
      5 C         140.0334  149.5339  153.3928 C.ar    1  UNL1       -0.0065
      6 C         139.1354  149.8743  154.5450 C.ar    1  UNL1       -0.0033
      7 C         138.8635  148.8544  155.6108 C.ar    1  UNL1       -0.0048
      8 C         139.4896  147.4941  155.5244 C.ar    1  UNL1       -0.0245
      9 C         140.3876  147.1537  154.3721 C.ar    1  UNL1       -0.0263
     10 C         140.6595  148.1736  153.3063 C.ar    1  UNL1       -0.0075
     11 C         141.0138  145.7934  154.2857 C.3     1  UNL1        0.0277
     12 C         140.7420  144.7735  155.3514 C.3     1  UNL1        0.0248
     13 C         139.8439  145.1140  156.5037 C.3     1  UNL1        0.0804
     14 C         139.2178  146.4742  156.5902 C.3     1  UNL1        0.0458
     15 C         140.3052  150.5538  152.3270 C.3     1  UNL1        0.0992
     16 C         138.7941  152.6581  152.1311 C.3     1  UNL1        0.0899
     17 N         140.0616  152.0083  152.6011 N.3     1  UNL1       -0.2665
     18 C         141.0857  152.8130  153.3453 C.3     1  UNL1        0.0899
     19 C         139.8245  143.2836  160.0250 C.ar    1  UNL1        0.1347
     20 C         140.8999  142.3213  160.4340 C.ar    1  UNL1        0.0238
     21 C         140.6281  141.3014  161.4998 C.ar    1  UNL1        0.0032
     22 C         139.2808  141.2438  162.1566 C.ar    1  UNL1        0.0192
     23 C         138.2053  142.2061  161.7475 C.ar    1  UNL1        0.0989
     24 N         138.4772  143.2260  160.6817 N.ar    1  UNL1       -0.2393
     25 C         139.0089  140.2239  163.2224 C.ar    1  UNL1        0.0016
     26 C         138.4589  140.6546  164.5498 C.ar    1  UNL1        0.0024
     27 C         138.1871  139.6347  165.6156 C.ar    1  UNL1        0.0296
     28 C         138.4652  138.1842  165.3540 C.ar    1  UNL1        0.1401
     29 F         138.1934  137.1643  166.4198 F       1  UNL1       -0.2042
     30 C         139.0152  137.7535  164.0266 C.ar    1  UNL1        0.0296
     31 C         139.2871  138.7734  162.9608 C.ar    1  UNL1        0.0024
@<TRIPOS>BOND
     1    16    17    1
     2    17    18    1
     3    17    15    1
     4    15     5    1
     5     5     6   ar
     6     6     7   ar
     7     7     8   ar
     8     8     9   ar
     9     9    10   ar
    10     9    11    1
    11    11    12    1
    12    12    13    1
    13    13     1    1
    14     1     2    1
    15     1     3   am
    16     3     4    2
    17     3    19    1
    18    19    20   ar
    19    20    21   ar
    20    21    22   ar
    21    22    25    1
    22    25    26   ar
    23    26    27   ar
    24    27    28   ar
    25    28    29    1
    26    28    30   ar
    27    30    31   ar
    28    22    23   ar
    29    23    24   ar
    30    13    14    1
    31    10     5   ar
    32    24    19   ar
    33    14     8    1
    34    31    25   ar
@<TRIPOS>MOLECULE
*****
 31 34 0 0 0
SMALL
GASTEIGER

@<TRIPOS>ATOM
      1 N         141.4325  144.1306  160.9347 N.am    1  UNL1       -0.2744
      2 C         142.6821  144.3057  161.7458 C.3     1  UNL1        0.1152
      3 C         140.1991  143.5615  161.5709 C.2     1  UNL1        0.2668
      4 O         138.9495  143.3864  160.7599 O.2     1  UNL1       -0.2683
      5 C         140.4003  146.7467  154.6625 C.ar    1  UNL1       -0.0065
      6 C         139.4492  147.3920  155.6263 C.ar    1  UNL1       -0.0033
      7 C         139.4654  146.9979  157.0735 C.ar    1  UNL1       -0.0048
      8 C         140.4327  145.9584  157.5569 C.ar    1  UNL1       -0.0245
      9 C         141.3838  145.3130  156.5931 C.ar    1  UNL1       -0.0263
     10 C         141.3676  145.7072  155.1459 C.ar    1  UNL1       -0.0075
     11 C         142.3512  144.2735  157.0765 C.3     1  UNL1        0.0277
     12 C         142.3674  143.8793  158.5237 C.3     1  UNL1        0.0248
     13 C         141.4162  144.5248  159.4875 C.3     1  UNL1        0.0804
     14 C         140.4489  145.5643  159.0041 C.3     1  UNL1        0.0458
     15 C         140.3841  147.1408  153.2153 C.3     1  UNL1        0.0992
     16 C         142.4171  148.1706  151.9679 C.3     1  UNL1        0.0899
     17 N         141.1533  148.3442  152.7570 N.3     1  UNL1       -0.2665
     18 C         140.6588  149.7212  153.0880 C.3     1  UNL1        0.0899
     19 C         140.2153  143.1673  163.0181 C.ar    1  UNL1        0.1347
     20 C         139.7057  144.1183  164.0602 C.ar    1  UNL1        0.0238
     21 C         139.7219  143.7242  165.5074 C.ar    1  UNL1        0.0032
     22 C         140.2478  142.3791  165.9125 C.ar    1  UNL1        0.0192
     23 C         140.7574  141.4281  164.8705 C.ar    1  UNL1        0.0989
     24 N         140.7412  141.8223  163.4233 N.ar    1  UNL1       -0.2393
     25 C         140.2640  141.9850  167.3597 C.ar    1  UNL1        0.0016
     26 C         140.6669  142.9831  168.4044 C.ar    1  UNL1        0.0024
     27 C         140.6831  142.5889  169.8516 C.ar    1  UNL1        0.0296
     28 C         140.2964  141.1967  170.2542 C.ar    1  UNL1        0.1401
     29 F         140.3126  140.8026  171.7014 F       1  UNL1       -0.2042
     30 C         139.8935  140.1986  169.2095 C.ar    1  UNL1        0.0296
     31 C         139.8773  140.5927  167.7623 C.ar    1  UNL1        0.0024
@<TRIPOS>BOND
     1    16    17    1
     2    17    18    1
     3    17    15    1
     4    15     5    1
     5     5     6   ar
     6     6     7   ar
     7     7     8   ar
     8     8     9   ar
     9     9    10   ar
    10     9    11    1
    11    11    12    1
    12    12    13    1
    13    13     1    1
    14     1     2    1
    15     1     3   am
    16     3     4    2
    17     3    19    1
    18    19    20   ar
    19    20    21   ar
    20    21    22   ar
    21    22    25    1
    22    25    26   ar
    23    26    27   ar
    24    27    28   ar
    25    28    29    1
    26    28    30   ar
    27    30    31   ar
    28    22    23   ar
    29    23    24   ar
    30    13    14    1
    31    10     5   ar
    32    24    19   ar
    33    14     8    1
    34    31    25   ar
@<TRIPOS>MOLECULE
*****
 31 34 0 0 0
SMALL
GASTEIGER

@<TRIPOS>ATOM
      1 N         141.0344  139.2674  160.5952 N.am    1  UNL1       -0.2744
      2 C         142.0028  140.3498  160.9700 C.3     1  UNL1        0.1152
      3 C         140.0604  138.7477  161.6107 C.2     1  UNL1        0.2668
      4 O         139.0920  137.6654  161.2358 O.2     1  UNL1       -0.2683
      5 C         142.1525  136.0861  154.6052 C.ar    1  UNL1       -0.0065
      6 C         143.2428  135.7185  155.5674 C.ar    1  UNL1       -0.0033
      7 C         143.2373  136.2813  156.9579 C.ar    1  UNL1       -0.0048
      8 C         142.1414  137.2116  157.3861 C.ar    1  UNL1       -0.0245
      9 C         141.0510  137.5792  156.4239 C.ar    1  UNL1       -0.0263
     10 C         141.0565  137.0165  155.0334 C.ar    1  UNL1       -0.0075
     11 C         139.9550  138.5096  156.8520 C.3     1  UNL1        0.0277
     12 C         139.9494  139.0723  158.2425 C.3     1  UNL1        0.0248
     13 C         141.0399  138.7047  159.2047 C.3     1  UNL1        0.0804
     14 C         142.1358  137.7743  158.7765 C.3     1  UNL1        0.0458
     15 C         142.1580  135.5234  153.2148 C.3     1  UNL1        0.0992
     16 C         140.2411  134.2912  151.9670 C.3     1  UNL1        0.0899
     17 N         141.4046  134.2619  152.9132 N.3     1  UNL1       -0.2665
     18 C         141.8148  132.9710  153.5579 C.3     1  UNL1        0.0899
     19 C         140.0549  139.3105  163.0011 C.ar    1  UNL1        0.1347
     20 C         140.9551  138.7275  164.0497 C.ar    1  UNL1        0.0238
     21 C         140.9496  139.2903  165.4402 C.ar    1  UNL1        0.0032
     22 C         140.0438  140.4359  165.7820 C.ar    1  UNL1        0.0192
     23 C         139.1435  141.0189  164.7334 C.ar    1  UNL1        0.0989
     24 N         139.1491  140.4562  163.3429 N.ar    1  UNL1       -0.2393
     25 C         140.0382  140.9987  167.1724 C.ar    1  UNL1        0.0016
     26 C         140.6302  142.3514  167.4364 C.ar    1  UNL1        0.0024
     27 C         140.6247  142.9141  168.8268 C.ar    1  UNL1        0.0296
     28 C         140.0271  142.1241  169.9533 C.ar    1  UNL1        0.1401
     29 F         140.0216  142.6869  171.3437 F       1  UNL1       -0.2042
     30 C         139.4352  140.7714  169.6893 C.ar    1  UNL1        0.0296
     31 C         139.4407  140.2087  168.2988 C.ar    1  UNL1        0.0024
@<TRIPOS>BOND
     1    16    17    1
     2    17    18    1
     3    17    15    1
     4    15     5    1
     5     5     6   ar
     6     6     7   ar
     7     7     8   ar
     8     8     9   ar
     9     9    10   ar
    10     9    11    1
    11    11    12    1
    12    12    13    1
    13    13     1    1
    14     1     2    1
    15     1     3   am
    16     3     4    2
    17     3    19    1
    18    19    20   ar
    19    20    21   ar
    20    21    22   ar
    21    22    25    1
    22    25    26   ar
    23    26    27   ar
    24    27    28   ar
    25    28    29    1
    26    28    30   ar
    27    30    31   ar
    28    22    23   ar
    29    23    24   ar
    30    13    14    1
    31    10     5   ar
    32    24    19   ar
    33    14     8    1
    34    31    25   ar
@<TRIPOS>MOLECULE
*****
 31 34 0 0 0
SMALL
GASTEIGER

@<TRIPOS>ATOM
      1 N         141.5719  139.2449  160.3048 N.am    1  UNL1       -0.2744
      2 C         142.4052  140.4909  160.3628 C.3     1  UNL1        0.1152
      3 C         140.9224  138.7184  161.5501 C.2     1  UNL1        0.2668
      4 O         140.0892  137.4724  161.4920 O.2     1  UNL1       -0.2683
      5 C         141.9682  135.5739  154.5068 C.ar    1  UNL1       -0.0065
      6 C         143.2826  135.4999  155.2256 C.ar    1  UNL1       -0.0033
      7 C         143.4662  136.2193  156.5290 C.ar    1  UNL1       -0.0048
      8 C         142.3354  137.0127  157.1135 C.ar    1  UNL1       -0.0245
      9 C         141.0210  137.0867  156.3947 C.ar    1  UNL1       -0.0263
     10 C         140.8374  136.3673  155.0914 C.ar    1  UNL1       -0.0075
     11 C         139.8901  137.8801  156.9793 C.3     1  UNL1        0.0277
     12 C         140.0737  138.5995  158.2826 C.3     1  UNL1        0.0248
     13 C         141.3883  138.5255  159.0014 C.3     1  UNL1        0.0804
     14 C         142.5191  137.7321  158.4169 C.3     1  UNL1        0.0458
     15 C         141.7845  134.8545  153.2034 C.3     1  UNL1        0.0992
     16 C         141.2876  132.5844  154.3651 C.3     1  UNL1        0.0899
     17 N         141.1530  133.4942  153.1801 N.3     1  UNL1       -0.2665
     18 C         140.3868  133.0436  151.9718 C.3     1  UNL1        0.0899
     19 C         141.1060  139.4378  162.8534 C.ar    1  UNL1        0.1347
     20 C         142.2351  139.0602  163.7659 C.ar    1  UNL1        0.0238
     21 C         142.4187  139.7796  165.0693 C.ar    1  UNL1        0.0032
     22 C         141.4733  140.8766  165.4602 C.ar    1  UNL1        0.0192
     23 C         140.3442  141.2541  164.5477 C.ar    1  UNL1        0.0989
     24 N         140.1606  140.5347  163.2443 N.ar    1  UNL1       -0.2393
     25 C         141.6569  141.5960  166.7635 C.ar    1  UNL1        0.0016
     26 C         140.4946  142.2938  167.4053 C.ar    1  UNL1        0.0024
     27 C         140.6782  143.0132  168.7086 C.ar    1  UNL1        0.0296
     28 C         142.0242  143.0347  169.3702 C.ar    1  UNL1        0.1401
     29 F         142.2078  143.7541  170.6736 F       1  UNL1       -0.2042
     30 C         143.1866  142.3369  168.7285 C.ar    1  UNL1        0.0296
     31 C         143.0029  141.6175  167.4251 C.ar    1  UNL1        0.0024
@<TRIPOS>BOND
     1    16    17    1
     2    17    18    1
     3    17    15    1
     4    15     5    1
     5     5     6   ar
     6     6     7   ar
     7     7     8   ar
     8     8     9   ar
     9     9    10   ar
    10     9    11    1
    11    11    12    1
    12    12    13    1
    13    13     1    1
    14     1     2    1
    15     1     3   am
    16     3     4    2
    17     3    19    1
    18    19    20   ar
    19    20    21   ar
    20    21    22   ar
    21    22    25    1
    22    25    26   ar
    23    26    27   ar
    24    27    28   ar
    25    28    29    1
    26    28    30   ar
    27    30    31   ar
    28    22    23   ar
    29    23    24   ar
    30    13    14    1
    31    10     5   ar
    32    24    19   ar
    33    14     8    1
    34    31    25   ar
@<TRIPOS>MOLECULE
*****
 31 34 0 0 0
SMALL
GASTEIGER

@<TRIPOS>ATOM
      1 N         143.2157  140.7903  160.3387 N.am    1  UNL1       -0.2744
      2 C         142.3403  141.9152  160.8062 C.3     1  UNL1        0.1152
      3 C         143.5929  139.6901  161.2859 C.2     1  UNL1        0.2668
      4 O         144.4682  138.5652  160.8184 O.2     1  UNL1       -0.2683
      5 C         146.3914  141.5254  154.2869 C.ar    1  UNL1       -0.0065
      6 C         147.0769  142.3835  155.3086 C.ar    1  UNL1       -0.0033
      7 C         146.5788  142.4081  156.7232 C.ar    1  UNL1       -0.0048
      8 C         145.3953  141.5746  157.1163 C.ar    1  UNL1       -0.0245
      9 C         144.7099  140.7165  156.0947 C.ar    1  UNL1       -0.0263
     10 C         145.2080  140.6919  154.6800 C.ar    1  UNL1       -0.0075
     11 C         143.5263  139.8829  156.4877 C.3     1  UNL1        0.0277
     12 C         143.0283  139.9075  157.9024 C.3     1  UNL1        0.0248
     13 C         143.7137  140.7657  158.9240 C.3     1  UNL1        0.0804
     14 C         144.8972  141.5992  158.5310 C.3     1  UNL1        0.0458
     15 C         146.8895  141.5008  152.8722 C.3     1  UNL1        0.0992
     16 C         146.7219  143.9309  151.9685 C.3     1  UNL1        0.0899
     17 N         147.5436  142.7168  152.2862 N.3     1  UNL1       -0.2665
     18 C         149.0194  142.7188  152.0177 C.3     1  UNL1        0.0899
     19 C         143.0948  139.7146  162.7005 C.ar    1  UNL1        0.1347
     20 C         143.8886  140.4152  163.7631 C.ar    1  UNL1        0.0238
     21 C         143.3906  140.4398  165.1778 C.ar    1  UNL1        0.0032
     22 C         142.0987  139.7638  165.5299 C.ar    1  UNL1        0.0192
     23 C         141.3049  139.0633  164.4674 C.ar    1  UNL1        0.0989
     24 N         141.8030  139.0387  163.0527 N.ar    1  UNL1       -0.2393
     25 C         141.6006  139.7884  166.9446 C.ar    1  UNL1        0.0016
     26 C         142.5484  139.5297  168.0780 C.ar    1  UNL1        0.0024
     27 C         142.0504  139.5543  169.4927 C.ar    1  UNL1        0.0296
     28 C         140.6045  139.8376  169.7740 C.ar    1  UNL1        0.1401
     29 F         140.1064  139.8622  171.1886 F       1  UNL1       -0.2042
     30 C         139.6567  140.0963  168.6405 C.ar    1  UNL1        0.0296
     31 C         140.1547  140.0717  167.2258 C.ar    1  UNL1        0.0024
@<TRIPOS>BOND
     1    16    17    1
     2    17    18    1
     3    17    15    1
     4    15     5    1
     5     5     6   ar
     6     6     7   ar
     7     7     8   ar
     8     8     9   ar
     9     9    10   ar
    10     9    11    1
    11    11    12    1
    12    12    13    1
    13    13     1    1
    14     1     2    1
    15     1     3   am
    16     3     4    2
    17     3    19    1
    18    19    20   ar
    19    20    21   ar
    20    21    22   ar
    21    22    25    1
    22    25    26   ar
    23    26    27   ar
    24    27    28   ar
    25    28    29    1
    26    28    30   ar
    27    30    31   ar
    28    22    23   ar
    29    23    24   ar
    30    13    14    1
    31    10     5   ar
    32    24    19   ar
    33    14     8    1
    34    31    25   ar
@<TRIPOS>MOLECULE
*****
 31 34 0 0 0
SMALL
GASTEIGER

@<TRIPOS>ATOM
      1 N         141.4234  137.1914  156.9396 N.am    1  UNL1       -0.2744
      2 C         142.5760  137.6936  157.7579 C.3     1  UNL1        0.1152
      3 C         140.0453  137.7362  157.1714 C.2     1  UNL1        0.2668
      4 O         138.8929  137.2339  156.3531 O.2     1  UNL1       -0.2683
      5 C         142.9847  131.7052  153.1037 C.ar    1  UNL1       -0.0065
      6 C         143.4173  131.4547  154.5179 C.ar    1  UNL1       -0.0033
      7 C         143.1915  132.5018  155.5680 C.ar    1  UNL1       -0.0048
      8 C         142.5332  133.7994  155.2038 C.ar    1  UNL1       -0.0245
      9 C         142.1007  134.0500  153.7895 C.ar    1  UNL1       -0.0263
     10 C         142.3264  133.0028  152.7395 C.ar    1  UNL1       -0.0075
     11 C         141.4423  135.3477  153.4253 C.3     1  UNL1        0.0277
     12 C         141.2166  136.3948  154.4753 C.3     1  UNL1        0.0248
     13 C         141.6492  136.1442  155.8896 C.3     1  UNL1        0.0804
     14 C         142.3075  134.8466  156.2538 C.3     1  UNL1        0.0458
     15 C         143.2104  130.6580  152.0537 C.3     1  UNL1        0.0992
     16 C         144.9380  128.7681  152.4938 C.3     1  UNL1        0.0899
     17 N         143.5166  129.2459  152.4563 N.3     1  UNL1       -0.2665
     18 C         142.4014  128.3115  152.8214 C.3     1  UNL1        0.0899
     19 C         139.8196  138.7833  158.2214 C.ar    1  UNL1        0.1347
     20 C         139.8658  140.2367  157.8534 C.ar    1  UNL1        0.0238
     21 C         139.6401  141.2839  158.9034 C.ar    1  UNL1        0.0032
     22 C         139.3681  140.8776  160.3215 C.ar    1  UNL1        0.0192
     23 C         139.3219  139.4242  160.6895 C.ar    1  UNL1        0.0989
     24 N         139.5476  138.3771  159.6395 N.ar    1  UNL1       -0.2393
     25 C         139.1424  141.9247  161.3715 C.ar    1  UNL1        0.0016
     26 C         137.8924  141.8986  162.2002 C.ar    1  UNL1        0.0024
     27 C         137.6666  142.9458  163.2502 C.ar    1  UNL1        0.0296
     28 C         138.6909  144.0190  163.4716 C.ar    1  UNL1        0.1401
     29 F         138.4651  145.0661  164.5216 F       1  UNL1       -0.2042
     30 C         139.9409  144.0451  162.6429 C.ar    1  UNL1        0.0296
     31 C         140.1666  142.9980  161.5928 C.ar    1  UNL1        0.0024
@<TRIPOS>BOND
     1    16    17    1
     2    17    18    1
     3    17    15    1
     4    15     5    1
     5     5     6   ar
     6     6     7   ar
     7     7     8   ar
     8     8     9   ar
     9     9    10   ar
    10     9    11    1
    11    11    12    1
    12    12    13    1
    13    13     1    1
    14     1     2    1
    15     1     3   am
    16     3     4    2
    17     3    19    1
    18    19    20   ar
    19    20    21   ar
    20    21    22   ar
    21    22    25    1
    22    25    26   ar
    23    26    27   ar
    24    27    28   ar
    25    28    29    1
    26    28    30   ar
    27    30    31   ar
    28    22    23   ar
    29    23    24   ar
    30    13    14    1
    31    10     5   ar
    32    24    19   ar
    33    14     8    1
    34    31    25   ar
@<TRIPOS>MOLECULE
*****
 31 34 0 0 0
SMALL
GASTEIGER

@<TRIPOS>ATOM
      1 N         139.8156  142.2425  160.8878 N.am    1  UNL1       -0.2744
      2 C         141.0384  141.4049  161.1186 C.3     1  UNL1        0.1152
      3 C         139.0379  142.7722  162.0560 C.2     1  UNL1        0.2668
      4 O         137.8152  143.6098  161.8252 O.2     1  UNL1       -0.2683
      5 C         136.9334  142.6745  154.6624 C.ar    1  UNL1       -0.0065
      6 C         136.2767  141.5669  155.4317 C.ar    1  UNL1       -0.0033
      7 C         136.7218  141.2590  156.8306 C.ar    1  UNL1       -0.0048
      8 C         137.8236  142.0587  157.4603 C.ar    1  UNL1       -0.0245
      9 C         138.4803  143.1663  156.6910 C.ar    1  UNL1       -0.0263
     10 C         138.0352  143.4742  155.2920 C.ar    1  UNL1       -0.0075
     11 C         139.5821  143.9661  157.3206 C.3     1  UNL1        0.0277
     12 C         140.0272  143.6581  158.7196 C.3     1  UNL1        0.0248
     13 C         139.3705  142.5504  159.4889 C.3     1  UNL1        0.0804
     14 C         138.2687  141.7507  158.8592 C.3     1  UNL1        0.0458
     15 C         136.4883  142.9824  153.2634 C.3     1  UNL1        0.0992
     16 C         134.1995  142.2443  152.2804 C.3     1  UNL1        0.0899
     17 N         135.6605  141.9886  152.5038 N.3     1  UNL1       -0.2665
     18 C         136.2938  140.7389  151.9677 C.3     1  UNL1        0.0899
     19 C         139.4830  142.4643  163.4549 C.ar    1  UNL1        0.1347
     20 C         140.4889  143.3463  164.1332 C.ar    1  UNL1        0.0238
     21 C         140.9340  143.0384  165.5322 C.ar    1  UNL1        0.0032
     22 C         140.3732  141.8484  166.2529 C.ar    1  UNL1        0.0192
     23 C         139.3674  140.9663  165.5746 C.ar    1  UNL1        0.0989
     24 N         138.9223  141.2743  164.1756 N.ar    1  UNL1       -0.2393
     25 C         140.8183  141.5405  167.6518 C.ar    1  UNL1        0.0016
     26 C         140.2907  140.3261  168.3566 C.ar    1  UNL1        0.0024
     27 C         140.7358  140.0182  169.7555 C.ar    1  UNL1        0.0296
     28 C         141.7085  140.9247  170.4497 C.ar    1  UNL1        0.1401
     29 F         142.1536  140.6167  171.8487 F       1  UNL1       -0.2042
     30 C         142.2362  142.1391  169.7450 C.ar    1  UNL1        0.0296
     31 C         141.7911  142.4470  168.3460 C.ar    1  UNL1        0.0024
@<TRIPOS>BOND
     1    16    17    1
     2    17    18    1
     3    17    15    1
     4    15     5    1
     5     5     6   ar
     6     6     7   ar
     7     7     8   ar
     8     8     9   ar
     9     9    10   ar
    10     9    11    1
    11    11    12    1
    12    12    13    1
    13    13     1    1
    14     1     2    1
    15     1     3   am
    16     3     4    2
    17     3    19    1
    18    19    20   ar
    19    20    21   ar
    20    21    22   ar
    21    22    25    1
    22    25    26   ar
    23    26    27   ar
    24    27    28   ar
    25    28    29    1
    26    28    30   ar
    27    30    31   ar
    28    22    23   ar
    29    23    24   ar
    30    13    14    1
    31    10     5   ar
    32    24    19   ar
    33    14     8    1
    34    31    25   ar
@<TRIPOS>MOLECULE
*****
 31 34 0 0 0
SMALL
GASTEIGER

@<TRIPOS>ATOM
      1 N         141.8901  139.2639  161.1041 N.am    1  UNL1       -0.2744
      2 C         142.4524  140.6431  161.2829 C.3     1  UNL1        0.1152
      3 C         141.4676  138.4652  162.3014 C.2     1  UNL1        0.2668
      4 O         140.9054  137.0861  162.1225 O.2     1  UNL1       -0.2683
      5 C         140.1439  137.2970  154.7533 C.ar    1  UNL1       -0.0065
      6 C         139.0971  138.2315  155.2832 C.ar    1  UNL1       -0.0033
      7 C         139.2369  138.8117  156.6594 C.ar    1  UNL1       -0.0048
      8 C         140.4236  138.4576  157.5056 C.ar    1  UNL1       -0.0245
      9 C         141.4705  137.5231  156.9757 C.ar    1  UNL1       -0.0263
     10 C         141.3307  136.9429  155.5996 C.ar    1  UNL1       -0.0075
     11 C         142.6573  137.1689  157.8220 C.3     1  UNL1        0.0277
     12 C         142.7972  137.7492  159.1981 C.3     1  UNL1        0.0248
     13 C         141.7502  138.6837  159.7280 C.3     1  UNL1        0.0804
     14 C         140.5635  139.0378  158.8817 C.3     1  UNL1        0.0458
     15 C         140.0041  136.7168  153.3772 C.3     1  UNL1        0.0992
     16 C         141.6374  134.9685  152.3643 C.3     1  UNL1        0.0899
     17 N         141.2274  136.3966  152.5704 N.3     1  UNL1       -0.2665
     18 C         142.0407  137.5046  151.9696 C.3     1  UNL1        0.0899
     19 C         141.6075  139.0454  163.6775 C.ar    1  UNL1        0.1347
     20 C         142.8529  138.7936  164.4746 C.ar    1  UNL1        0.0238
     21 C         142.9928  139.3739  165.8508 C.ar    1  UNL1        0.0032
     22 C         141.8872  140.2060  166.4297 C.ar    1  UNL1        0.0192
     23 C         140.6418  140.4578  165.6326 C.ar    1  UNL1        0.0989
     24 N         140.5019  139.8775  164.2565 N.ar    1  UNL1       -0.2393
     25 C         142.0271  140.7862  167.8059 C.ar    1  UNL1        0.0016
     26 C         142.5129  139.9279  168.9360 C.ar    1  UNL1        0.0024
     27 C         142.6528  140.5081  170.3121 C.ar    1  UNL1        0.0296
     28 C         142.3068  141.9468  170.5581 C.ar    1  UNL1        0.1401
     29 F         142.4466  142.5270  171.9343 F       1  UNL1       -0.2042
     30 C         141.8209  142.8051  169.4281 C.ar    1  UNL1        0.0296
     31 C         141.6811  142.2249  168.0519 C.ar    1  UNL1        0.0024
@<TRIPOS>BOND
     1    16    17    1
     2    17    18    1
     3    17    15    1
     4    15     5    1
     5     5     6   ar
     6     6     7   ar
     7     7     8   ar
     8     8     9   ar
     9     9    10   ar
    10     9    11    1
    11    11    12    1
    12    12    13    1
    13    13     1    1
    14     1     2    1
    15     1     3   am
    16     3     4    2
    17     3    19    1
    18    19    20   ar
    19    20    21   ar
    20    21    22   ar
    21    22    25    1
    22    25    26   ar
    23    26    27   ar
    24    27    28   ar
    25    28    29    1
    26    28    30   ar
    27    30    31   ar
    28    22    23   ar
    29    23    24   ar
    30    13    14    1
    31    10     5   ar
    32    24    19   ar
    33    14     8    1
    34    31    25   ar
