@<TRIPOS>MOLECULE
*****
 42 46 0 0 0
SMALL
GASTEIGER

@<TRIPOS>ATOM
      1 N         140.0627  139.0198  160.9403 N.pl3   1  UNL1       -0.2770
      2 C         143.1060  138.2474  160.0508 C.3     1  UNL1        0.1332
      3 N         141.8779  138.1131  159.2001 N.ar    1  UNL1       -0.2976
      4 C         140.4790  138.4681  159.6090 C.ar    1  UNL1        0.2014
      5 N         139.5696  138.1747  158.4528 N.ar    1  UNL1       -0.2136
      6 C         140.4064  137.6383  157.3293 C.ar    1  UNL1        0.0999
      7 C         140.0536  137.1796  155.9455 C.ar    1  UNL1        0.0245
      8 C         141.1275  136.6829  155.0235 C.ar    1  UNL1        0.0730
      9 C         142.5541  136.6449  155.4854 C.ar    1  UNL1        0.0054
     10 C         142.9068  137.1036  156.8693 C.ar    1  UNL1        0.0187
     11 C         141.8330  137.6003  157.7912 C.ar    1  UNL1        0.0799
     12 C         140.7747  136.2241  153.6396 C.3     1  UNL1        0.4186
     13 F         140.4221  135.7654  152.2557 F       1  UNL1       -0.1659
     14 F         142.2081  135.8547  153.3968 F       1  UNL1       -0.1659
     15 F         139.3414  136.5936  153.8824 F       1  UNL1       -0.1659
     16 C         139.9866  140.5035  161.1468 C.3     1  UNL1        0.0758
     17 C         141.2253  141.2778  161.4877 C.3     1  UNL1        0.0198
     18 C         141.1491  142.7616  161.6942 C.3     1  UNL1        0.0017
     19 C         139.8344  143.4711  161.5597 C.3     1  UNL1        0.0001
     20 C         138.5958  142.6968  161.2188 C.3     1  UNL1        0.0017
     21 C         138.6718  141.2130  161.0123 C.3     1  UNL1        0.0198
     22 C         139.7583  144.9549  161.7662 C.3     1  UNL1        0.0000
     23 C         138.7567  144.7507  162.8639 C.3     1  UNL1        0.0000
     24 C         140.7598  145.1591  160.6684 C.3     1  UNL1        0.0000
     25 C         139.6821  146.4386  161.9727 C.3     1  UNL1        0.0000
     26 C         139.7224  138.0876  162.0651 C.3     1  UNL1        0.1202
     27 C         139.7520  138.5796  163.4819 C.ar    1  UNL1       -0.0023
     28 C         141.0614  138.7179  164.2006 C.ar    1  UNL1       -0.0025
     29 C         141.0909  139.2098  165.6174 C.ar    1  UNL1        0.0043
     30 C         139.8111  139.5635  166.3153 C.ar    1  UNL1        0.0537
     31 C         138.5018  139.4252  165.5966 C.ar    1  UNL1        0.0043
     32 C         138.4723  138.9332  164.1799 C.ar    1  UNL1       -0.0025
     33 C         139.8406  140.0554  167.7321 C.2     1  UNL1        0.2517
     34 O         138.7682  139.6371  168.6938 O.2     1  UNL1       -0.2697
     35 N         140.9427  140.9656  168.1871 N.am    1  UNL1       -0.2495
     36 H         141.6466  141.2402  167.5559 H       1  UNL1        0.1581
     37 C         140.9723  141.4576  169.6038 C.ar    1  UNL1        0.2389
     38 N         142.2001  141.8174  170.3868 N.ar    1  UNL1       -0.0922
     39 N         141.7659  142.2583  171.7532 N.ar    1  UNL1       -0.0216
     40 N         140.2697  142.1709  171.8147 N.ar    1  UNL1       -0.0454
     41 N         139.7792  141.6761  170.4864 N.ar    1  UNL1       -0.2269
     42 H         138.8393  141.5218  170.2374 H       1  UNL1        0.1936
@<TRIPOS>BOND
     1     2     3    1
     2     3     4   ar
     3     4     1    1
     4     1    26    1
     5    26    27    1
     6    27    28   ar
     7    28    29   ar
     8    29    30   ar
     9    30    33    1
    10    33    34    2
    11    33    35   am
    12    35    37    1
    13    37    38   ar
    14    38    39   ar
    15    39    40   ar
    16    40    41   ar
    17    30    31   ar
    18    31    32   ar
    19    16     1    1
    20    16    17    1
    21    17    18    1
    22    18    19    1
    23    19    22    1
    24    22    23    1
    25    22    24    1
    26    22    25    1
    27    19    20    1
    28    20    21    1
    29     4     5   ar
    30     5     6   ar
    31     6     7   ar
    32     7     8   ar
    33     8    12    1
    34    12    13    1
    35    12    14    1
    36    12    15    1
    37     8     9   ar
    38     9    10   ar
    39    10    11   ar
    40    11     3   ar
    41    32    27   ar
    42    21    16    1
    43    11     6   ar
    44    41    37   ar
    45    35    36    1
    46    41    42    1
@<TRIPOS>MOLECULE
*****
 42 46 0 0 0
SMALL
GASTEIGER

@<TRIPOS>ATOM
      1 N         140.5234  139.2761  159.8255 N.pl3   1  UNL1       -0.2770
      2 C         143.5385  138.4709  160.7794 C.3     1  UNL1        0.1332
      3 N         142.8158  139.7406  161.1193 N.ar    1  UNL1       -0.2976
      4 C         141.4299  140.1107  160.6808 C.ar    1  UNL1        0.2014
      5 N         141.1098  141.4620  161.2478 N.ar    1  UNL1       -0.2136
      6 C         142.2978  141.9271  162.0368 C.ar    1  UNL1        0.0999
      7 C         142.5556  143.1818  162.8172 C.ar    1  UNL1        0.0245
      8 C         143.8679  143.3726  163.5182 C.ar    1  UNL1        0.0730
      9 C         144.9224  142.3087  163.4387 C.ar    1  UNL1        0.0054
     10 C         144.6645  141.0540  162.6583 C.ar    1  UNL1        0.0187
     11 C         143.3522  140.8632  161.9573 C.ar    1  UNL1        0.0799
     12 C         144.1258  144.6274  164.2987 C.3     1  UNL1        0.4186
     13 F         144.3837  145.8821  165.0791 F       1  UNL1       -0.1659
     14 F         143.4556  145.4327  163.2253 F       1  UNL1       -0.1659
     15 F         144.7961  143.8220  165.3720 F       1  UNL1       -0.1659
     16 C         140.8637  139.0351  158.3847 C.3     1  UNL1        0.0758
     17 C         141.9136  139.8691  157.7123 C.3     1  UNL1        0.0198
     18 C         142.2540  139.6280  156.2714 C.3     1  UNL1        0.0017
     19 C         141.5445  138.5528  155.5030 C.3     1  UNL1        0.0001
     20 C         140.4946  137.7188  156.1753 C.3     1  UNL1        0.0017
     21 C         140.1542  137.9598  157.6161 C.3     1  UNL1        0.0198
     22 C         141.8848  138.3117  154.0621 C.3     1  UNL1        0.0000
     23 C         141.0069  139.4604  153.6625 C.3     1  UNL1        0.0000
     24 C         142.7628  137.1631  154.4616 C.3     1  UNL1        0.0000
     25 C         142.2251  138.0706  152.6213 C.3     1  UNL1        0.0000
     26 C         139.2765  138.6826  160.4110 C.3     1  UNL1        0.1202
     27 C         139.0587  138.7084  161.8949 C.ar    1  UNL1       -0.0023
     28 C         138.2522  139.8105  162.5154 C.ar    1  UNL1       -0.0025
     29 C         138.0344  139.8364  163.9993 C.ar    1  UNL1        0.0043
     30 C         138.6231  138.7601  164.8626 C.ar    1  UNL1        0.0537
     31 C         139.4296  137.6581  164.2420 C.ar    1  UNL1        0.0043
     32 C         139.6474  137.6323  162.7581 C.ar    1  UNL1       -0.0025
     33 C         138.4054  138.7860  166.3465 C.2     1  UNL1        0.2517
     34 O         137.3028  137.9726  166.9570 O.2     1  UNL1       -0.2697
     35 N         139.2902  139.6252  167.2199 N.am    1  UNL1       -0.2495
     36 H         140.0139  140.1591  166.8192 H       1  UNL1        0.1581
     37 C         139.0725  139.6511  168.7038 C.ar    1  UNL1        0.2389
     38 N         140.1265  139.8820  169.7457 N.ar    1  UNL1       -0.0922
     39 N         139.4679  139.8242  171.0922 N.ar    1  UNL1       -0.0216
     40 N         138.0068  139.5575  170.8824 N.ar    1  UNL1       -0.0454
     41 N         137.7624  139.4505  169.4063 N.ar    1  UNL1       -0.2269
     42 H         136.8945  139.2788  168.9744 H       1  UNL1        0.1936
@<TRIPOS>BOND
     1     2     3    1
     2     3     4   ar
     3     4     1    1
     4     1    26    1
     5    26    27    1
     6    27    28   ar
     7    28    29   ar
     8    29    30   ar
     9    30    33    1
    10    33    34    2
    11    33    35   am
    12    35    37    1
    13    37    38   ar
    14    38    39   ar
    15    39    40   ar
    16    40    41   ar
    17    30    31   ar
    18    31    32   ar
    19    16     1    1
    20    16    17    1
    21    17    18    1
    22    18    19    1
    23    19    22    1
    24    22    23    1
    25    22    24    1
    26    22    25    1
    27    19    20    1
    28    20    21    1
    29     4     5   ar
    30     5     6   ar
    31     6     7   ar
    32     7     8   ar
    33     8    12    1
    34    12    13    1
    35    12    14    1
    36    12    15    1
    37     8     9   ar
    38     9    10   ar
    39    10    11   ar
    40    11     3   ar
    41    32    27   ar
    42    21    16    1
    43    11     6   ar
    44    41    37   ar
    45    35    36    1
    46    41    42    1
@<TRIPOS>MOLECULE
*****
 42 46 0 0 0
SMALL
GASTEIGER

@<TRIPOS>ATOM
      1 N         139.9645  139.3135  160.7069 N.pl3   1  UNL1       -0.2770
      2 C         138.1110  140.5360  158.3153 C.3     1  UNL1        0.1332
      3 N         139.1802  139.4958  158.1580 N.ar    1  UNL1       -0.2976
      4 C         140.0322  138.9339  159.2573 C.ar    1  UNL1        0.2014
      5 N         140.9636  137.9256  158.6525 N.ar    1  UNL1       -0.2136
      6 C         140.6874  137.8644  157.1794 C.ar    1  UNL1        0.0999
      7 C         141.2971  137.0504  156.0769 C.ar    1  UNL1        0.0245
      8 C         140.8045  137.2068  154.6687 C.ar    1  UNL1        0.0730
      9 C         139.7023  138.1773  154.3631 C.ar    1  UNL1        0.0054
     10 C         139.0926  138.9913  155.4657 C.ar    1  UNL1        0.0187
     11 C         139.5852  138.8348  156.8738 C.ar    1  UNL1        0.0799
     12 C         141.4142  136.3928  153.5661 C.3     1  UNL1        0.4186
     13 F         142.0239  135.5789  152.4635 F       1  UNL1       -0.1659
     14 F         142.7828  136.6911  154.1027 F       1  UNL1       -0.1659
     15 F         140.0457  136.0946  153.0295 F       1  UNL1       -0.1659
     16 C         140.7605  140.4789  161.2149 C.3     1  UNL1        0.0758
     17 C         142.1549  140.2689  161.7263 C.3     1  UNL1        0.0198
     18 C         142.9510  141.4344  162.2344 C.3     1  UNL1        0.0017
     19 C         142.3526  142.8099  162.2309 C.3     1  UNL1        0.0001
     20 C         140.9582  143.0199  161.7195 C.3     1  UNL1        0.0017
     21 C         140.1622  141.8545  161.2115 C.3     1  UNL1        0.0198
     22 C         143.1486  143.9754  162.7389 C.3     1  UNL1        0.0000
     23 C         141.9141  144.5405  163.3766 C.3     1  UNL1        0.0000
     24 C         144.3831  143.4103  162.1013 C.3     1  UNL1        0.0000
     25 C         143.9445  145.1409  163.2470 C.3     1  UNL1        0.0000
     26 C         139.1009  138.5278  161.6485 C.3     1  UNL1        0.1202
     27 C         139.1404  138.8159  163.1200 C.ar    1  UNL1       -0.0023
     28 C         140.0950  138.0703  164.0049 C.ar    1  UNL1       -0.0025
     29 C         140.1345  138.3584  165.4764 C.ar    1  UNL1        0.0043
     30 C         139.2195  139.3922  166.0631 C.ar    1  UNL1        0.0537
     31 C         138.2650  140.1378  165.1782 C.ar    1  UNL1        0.0043
     32 C         138.2255  139.8496  163.7067 C.ar    1  UNL1       -0.0025
     33 C         139.2590  139.6804  167.5346 C.2     1  UNL1        0.2517
     34 O         138.1757  139.1575  168.4306 O.2     1  UNL1       -0.2697
     35 N         140.3820  140.4915  168.1101 N.am    1  UNL1       -0.2495
     36 H         141.0931  140.8347  167.5220 H       1  UNL1        0.1581
     37 C         140.4215  140.7796  169.5816 C.ar    1  UNL1        0.2389
     38 N         140.5109  142.1378  170.2121 N.ar    1  UNL1       -0.0922
     39 N         140.5232  141.9578  171.7012 N.ar    1  UNL1       -0.0216
     40 N         140.4416  140.4883  171.9911 N.ar    1  UNL1       -0.0454
     41 N         140.3787  139.7602  170.6812 N.ar    1  UNL1       -0.2269
     42 H         140.3197  138.7845  170.5637 H       1  UNL1        0.1936
@<TRIPOS>BOND
     1     2     3    1
     2     3     4   ar
     3     4     1    1
     4     1    26    1
     5    26    27    1
     6    27    28   ar
     7    28    29   ar
     8    29    30   ar
     9    30    33    1
    10    33    34    2
    11    33    35   am
    12    35    37    1
    13    37    38   ar
    14    38    39   ar
    15    39    40   ar
    16    40    41   ar
    17    30    31   ar
    18    31    32   ar
    19    16     1    1
    20    16    17    1
    21    17    18    1
    22    18    19    1
    23    19    22    1
    24    22    23    1
    25    22    24    1
    26    22    25    1
    27    19    20    1
    28    20    21    1
    29     4     5   ar
    30     5     6   ar
    31     6     7   ar
    32     7     8   ar
    33     8    12    1
    34    12    13    1
    35    12    14    1
    36    12    15    1
    37     8     9   ar
    38     9    10   ar
    39    10    11   ar
    40    11     3   ar
    41    32    27   ar
    42    21    16    1
    43    11     6   ar
    44    41    37   ar
    45    35    36    1
    46    41    42    1
@<TRIPOS>MOLECULE
*****
 42 46 0 0 0
SMALL
GASTEIGER

@<TRIPOS>ATOM
      1 N         143.2174  139.7358  160.2893 N.pl3   1  UNL1       -0.2770
      2 C         144.1283  140.9941  157.4193 C.3     1  UNL1        0.1332
      3 N         143.5073  139.6456  157.6335 N.ar    1  UNL1       -0.2976
      4 C         143.0887  139.0672  158.9527 C.ar    1  UNL1        0.2014
      5 N         142.5186  137.7028  158.7006 N.ar    1  UNL1       -0.2136
      6 C         142.5850  137.4380  157.2256 C.ar    1  UNL1        0.0999
      7 C         142.1680  136.2586  156.3979 C.ar    1  UNL1        0.0245
      8 C         142.3620  136.2800  154.9107 C.ar    1  UNL1        0.0730
      9 C         142.9731  137.4807  154.2512 C.ar    1  UNL1        0.0054
     10 C         143.3901  138.6600  155.0789 C.ar    1  UNL1        0.0187
     11 C         143.1961  138.6387  156.5661 C.ar    1  UNL1        0.0799
     12 C         141.9450  135.1006  154.0828 C.3     1  UNL1        0.4186
     13 F         141.5279  133.9213  153.2551 F       1  UNL1       -0.1659
     14 F         141.6266  134.3356  155.3332 F       1  UNL1       -0.1659
     15 F         142.2633  135.8656  152.8325 F       1  UNL1       -0.1659
     16 C         142.5273  141.0431  160.5435 C.3     1  UNL1        0.0758
     17 C         143.3356  142.2805  160.7995 C.3     1  UNL1        0.0198
     18 C         142.6455  143.5878  161.0537 C.3     1  UNL1        0.0017
     19 C         141.1471  143.6578  161.0520 C.3     1  UNL1        0.0001
     20 C         140.3389  142.4204  160.7960 C.3     1  UNL1        0.0017
     21 C         141.0289  141.1130  160.5417 C.3     1  UNL1        0.0198
     22 C         140.4570  144.9651  161.3062 C.3     1  UNL1        0.0000
     23 C         140.7442  145.3908  159.8969 C.3     1  UNL1        0.0000
     24 C         140.1697  144.5395  162.7155 C.3     1  UNL1        0.0000
     25 C         139.7669  146.2724  161.5604 C.3     1  UNL1        0.0000
     26 C         144.0362  139.0970  161.3716 C.3     1  UNL1        0.1202
     27 C         143.5816  139.1718  162.7991 C.ar    1  UNL1       -0.0023
     28 C         142.4417  138.3175  163.2689 C.ar    1  UNL1       -0.0025
     29 C         141.9871  138.3923  164.6964 C.ar    1  UNL1        0.0043
     30 C         142.6724  139.3215  165.6541 C.ar    1  UNL1        0.0537
     31 C         143.8123  140.1758  165.1842 C.ar    1  UNL1        0.0043
     32 C         144.2669  140.1010  163.7567 C.ar    1  UNL1       -0.0025
     33 C         142.2178  139.3963  167.0816 C.2     1  UNL1        0.2517
     34 O         143.1224  138.9273  168.1823 O.2     1  UNL1       -0.2697
     35 N         140.8585  139.9401  167.4083 N.am    1  UNL1       -0.2495
     36 H         140.2647  140.2479  166.6858 H       1  UNL1        0.1581
     37 C         140.4039  140.0149  168.8358 C.ar    1  UNL1        0.2389
     38 N         139.0204  139.7236  169.3369 N.ar    1  UNL1       -0.0922
     39 N         139.0144  139.9228  170.8236 N.ar    1  UNL1       -0.0216
     40 N         140.3942  140.3372  171.2413 N.ar    1  UNL1       -0.0454
     41 N         141.2529  140.3942  170.0127 N.ar    1  UNL1       -0.2269
     42 H         142.2064  140.6377  169.9840 H       1  UNL1        0.1936
@<TRIPOS>BOND
     1     2     3    1
     2     3     4   ar
     3     4     1    1
     4     1    26    1
     5    26    27    1
     6    27    28   ar
     7    28    29   ar
     8    29    30   ar
     9    30    33    1
    10    33    34    2
    11    33    35   am
    12    35    37    1
    13    37    38   ar
    14    38    39   ar
    15    39    40   ar
    16    40    41   ar
    17    30    31   ar
    18    31    32   ar
    19    16     1    1
    20    16    17    1
    21    17    18    1
    22    18    19    1
    23    19    22    1
    24    22    23    1
    25    22    24    1
    26    22    25    1
    27    19    20    1
    28    20    21    1
    29     4     5   ar
    30     5     6   ar
    31     6     7   ar
    32     7     8   ar
    33     8    12    1
    34    12    13    1
    35    12    14    1
    36    12    15    1
    37     8     9   ar
    38     9    10   ar
    39    10    11   ar
    40    11     3   ar
    41    32    27   ar
    42    21    16    1
    43    11     6   ar
    44    41    37   ar
    45    35    36    1
    46    41    42    1
@<TRIPOS>MOLECULE
*****
 42 46 0 0 0
SMALL
GASTEIGER

@<TRIPOS>ATOM
      1 N         141.7346  138.4045  159.9979 N.pl3   1  UNL1       -0.2770
      2 C         138.7285  138.7124  161.2301 C.3     1  UNL1        0.1332
      3 N         139.7011  139.8286  160.9889 N.ar    1  UNL1       -0.2976
      4 C         141.0828  139.6870  160.4225 C.ar    1  UNL1        0.2014
      5 N         141.6983  141.0532  160.3553 N.ar    1  UNL1       -0.2136
      6 C         140.6970  142.0392  160.8801 C.ar    1  UNL1        0.0999
      7 C         140.7498  143.5283  161.0520 C.ar    1  UNL1        0.0245
      8 C         139.5682  144.2605  161.6155 C.ar    1  UNL1        0.0730
      9 C         138.3338  143.5036  162.0071 C.ar    1  UNL1        0.0054
     10 C         138.2810  142.0145  161.8352 C.ar    1  UNL1        0.0187
     11 C         139.4626  141.2822  161.2717 C.ar    1  UNL1        0.0799
     12 C         139.6209  145.7498  161.7875 C.3     1  UNL1        0.4186
     13 F         139.6737  147.2389  161.9594 F       1  UNL1       -0.1659
     14 F         139.2877  145.5936  163.2416 F       1  UNL1       -0.1659
     15 F         139.9542  145.9059  160.3333 F       1  UNL1       -0.1659
     16 C         141.5748  137.9122  158.5901 C.3     1  UNL1        0.0758
     17 C         142.7344  137.2774  157.8814 C.3     1  UNL1        0.0198
     18 C         142.5746  136.7851  156.4734 C.3     1  UNL1        0.0017
     19 C         141.2553  136.9277  155.7743 C.3     1  UNL1        0.0001
     20 C         140.0957  137.5625  156.4830 C.3     1  UNL1        0.0017
     21 C         140.2554  138.0548  157.8908 C.3     1  UNL1        0.0198
     22 C         141.0955  136.4354  154.3663 C.3     1  UNL1        0.0000
     23 C         139.6432  136.8090  154.4006 C.3     1  UNL1        0.0000
     24 C         142.5478  136.0619  154.3320 C.3     1  UNL1        0.0000
     25 C         140.9356  135.9432  152.9585 C.3     1  UNL1        0.0000
     26 C         142.5460  137.6142  160.9812 C.3     1  UNL1        0.1202
     27 C         142.4961  137.9556  162.4410 C.ar    1  UNL1       -0.0023
     28 C         141.4148  137.3829  163.3086 C.ar    1  UNL1       -0.0025
     29 C         141.3649  137.7244  164.7684 C.ar    1  UNL1        0.0043
     30 C         142.3964  138.6385  165.3605 C.ar    1  UNL1        0.0537
     31 C         143.4776  139.2112  164.4928 C.ar    1  UNL1        0.0043
     32 C         143.5275  138.8697  163.0331 C.ar    1  UNL1       -0.0025
     33 C         142.3465  138.9800  166.8203 C.2     1  UNL1        0.2517
     34 O         143.4665  138.5632  167.7267 O.2     1  UNL1       -0.2697
     35 N         141.1764  139.7383  167.3736 N.am    1  UNL1       -0.2495
     36 H         140.4413  140.0118  166.7786 H       1  UNL1        0.1581
     37 C         141.1265  140.0797  168.8333 C.ar    1  UNL1        0.2389
     38 N         139.9427  139.9096  169.7387 N.ar    1  UNL1       -0.0922
     39 N         140.3362  140.3760  171.1089 N.ar    1  UNL1       -0.0216
     40 N         141.7633  140.8343  171.0505 N.ar    1  UNL1       -0.0454
     41 N         142.2517  140.6512  169.6441 N.ar    1  UNL1       -0.2269
     42 H         143.1526  140.8681  169.3116 H       1  UNL1        0.1936
@<TRIPOS>BOND
     1     2     3    1
     2     3     4   ar
     3     4     1    1
     4     1    26    1
     5    26    27    1
     6    27    28   ar
     7    28    29   ar
     8    29    30   ar
     9    30    33    1
    10    33    34    2
    11    33    35   am
    12    35    37    1
    13    37    38   ar
    14    38    39   ar
    15    39    40   ar
    16    40    41   ar
    17    30    31   ar
    18    31    32   ar
    19    16     1    1
    20    16    17    1
    21    17    18    1
    22    18    19    1
    23    19    22    1
    24    22    23    1
    25    22    24    1
    26    22    25    1
    27    19    20    1
    28    20    21    1
    29     4     5   ar
    30     5     6   ar
    31     6     7   ar
    32     7     8   ar
    33     8    12    1
    34    12    13    1
    35    12    14    1
    36    12    15    1
    37     8     9   ar
    38     9    10   ar
    39    10    11   ar
    40    11     3   ar
    41    32    27   ar
    42    21    16    1
    43    11     6   ar
    44    41    37   ar
    45    35    36    1
    46    41    42    1
@<TRIPOS>MOLECULE
*****
 42 46 0 0 0
SMALL
GASTEIGER

@<TRIPOS>ATOM
      1 N         142.3147  138.1451  157.0984 N.pl3   1  UNL1       -0.2770
      2 C         140.6330  136.1740  155.1142 C.3     1  UNL1        0.1332
      3 N         141.7195  135.7550  156.0598 N.ar    1  UNL1       -0.2976
      4 C         142.4925  136.6610  156.9718 C.ar    1  UNL1        0.2014
      5 N         143.4744  135.8224  157.7349 N.ar    1  UNL1       -0.2136
      6 C         143.3083  134.3981  157.2946 C.ar    1  UNL1        0.0999
      7 C         144.0046  133.1337  157.7026 C.ar    1  UNL1        0.0245
      8 C         143.6162  131.8277  157.0753 C.ar    1  UNL1        0.0730
      9 C         142.5316  131.7861  156.0400 C.ar    1  UNL1        0.0054
     10 C         141.8354  133.0505  155.6320 C.ar    1  UNL1        0.0187
     11 C         142.2237  134.3565  156.2593 C.ar    1  UNL1        0.0799
     12 C         144.3125  130.5632  157.4833 C.3     1  UNL1        0.4186
     13 F         145.0088  129.2989  157.8913 F       1  UNL1       -0.1659
     14 F         145.3991  131.3702  158.1298 F       1  UNL1       -0.1659
     15 F         143.2259  129.7563  156.8368 F       1  UNL1       -0.1659
     16 C         143.4101  139.0717  156.6610 C.3     1  UNL1        0.0758
     17 C         143.8136  140.2216  157.5355 C.3     1  UNL1        0.0198
     18 C         144.9091  141.1483  157.0981 C.3     1  UNL1        0.0017
     19 C         145.6011  140.9249  155.7861 C.3     1  UNL1        0.0001
     20 C         145.1977  139.7749  154.9116 C.3     1  UNL1        0.0017
     21 C         144.1022  138.8483  155.3490 C.3     1  UNL1        0.0198
     22 C         146.6966  141.8515  155.3487 C.3     1  UNL1        0.0000
     23 C         146.5997  141.3077  153.9541 C.3     1  UNL1        0.0000
     24 C         146.7936  142.3953  156.7433 C.3     1  UNL1        0.0000
     25 C         147.7921  142.7781  154.9112 C.3     1  UNL1        0.0000
     26 C         141.0415  138.7025  157.6623 C.3     1  UNL1        0.1202
     27 C         140.7681  138.6071  159.1341 C.ar    1  UNL1       -0.0023
     28 C         139.3597  138.6961  159.6427 C.ar    1  UNL1       -0.0025
     29 C         139.0863  138.6007  161.1144 C.ar    1  UNL1        0.0043
     30 C         140.2213  138.4164  162.0777 C.ar    1  UNL1        0.0537
     31 C         141.6296  138.3275  161.5692 C.ar    1  UNL1        0.0043
     32 C         141.9030  138.4229  160.0974 C.ar    1  UNL1       -0.0025
     33 C         139.9479  138.3211  163.5495 C.2     1  UNL1        0.2517
     34 O         140.5772  137.2269  164.3599 O.2     1  UNL1       -0.2697
     35 N         139.0452  139.3200  164.2109 N.am    1  UNL1       -0.2495
     36 H         138.6322  140.0382  163.6790 H       1  UNL1        0.1581
     37 C         138.7718  139.2246  165.6827 C.ar    1  UNL1        0.2389
     38 N         137.6662  138.4406  166.3251 N.ar    1  UNL1       -0.0922
     39 N         137.7671  138.6279  167.8100 N.ar    1  UNL1       -0.0216
     40 N         138.9352  139.5278  168.0852 N.ar    1  UNL1       -0.0454
     41 N         139.5561  139.8966  166.7705 N.ar    1  UNL1       -0.2269
     42 H         140.3407  140.4777  166.6439 H       1  UNL1        0.1936
@<TRIPOS>BOND
     1     2     3    1
     2     3     4   ar
     3     4     1    1
     4     1    26    1
     5    26    27    1
     6    27    28   ar
     7    28    29   ar
     8    29    30   ar
     9    30    33    1
    10    33    34    2
    11    33    35   am
    12    35    37    1
    13    37    38   ar
    14    38    39   ar
    15    39    40   ar
    16    40    41   ar
    17    30    31   ar
    18    31    32   ar
    19    16     1    1
    20    16    17    1
    21    17    18    1
    22    18    19    1
    23    19    22    1
    24    22    23    1
    25    22    24    1
    26    22    25    1
    27    19    20    1
    28    20    21    1
    29     4     5   ar
    30     5     6   ar
    31     6     7   ar
    32     7     8   ar
    33     8    12    1
    34    12    13    1
    35    12    14    1
    36    12    15    1
    37     8     9   ar
    38     9    10   ar
    39    10    11   ar
    40    11     3   ar
    41    32    27   ar
    42    21    16    1
    43    11     6   ar
    44    41    37   ar
    45    35    36    1
    46    41    42    1
@<TRIPOS>MOLECULE
*****
 42 46 0 0 0
SMALL
GASTEIGER

@<TRIPOS>ATOM
      1 N         143.7369  141.5049  157.3181 N.pl3   1  UNL1       -0.2770
      2 C         142.0840  144.1818  158.1850 C.3     1  UNL1        0.1332
      3 N         142.8196  143.2607  159.1127 N.ar    1  UNL1       -0.2976
      4 C         143.5794  142.0303  158.7142 C.ar    1  UNL1        0.2014
      5 N         144.1539  141.4176  159.9570 N.ar    1  UNL1       -0.2136
      6 C         143.7492  142.2693  161.1235 C.ar    1  UNL1        0.0999
      7 C         144.0251  142.1547  162.5934 C.ar    1  UNL1        0.0245
      8 C         143.4763  143.1793  163.5416 C.ar    1  UNL1        0.0730
      9 C         142.6517  144.3185  163.0198 C.ar    1  UNL1        0.0054
     10 C         142.3758  144.4330  161.5498 C.ar    1  UNL1        0.0187
     11 C         142.9246  143.4084  160.6017 C.ar    1  UNL1        0.0799
     12 C         143.7522  143.0648  165.0116 C.3     1  UNL1        0.4186
     13 F         144.0281  142.9502  166.4815 F       1  UNL1       -0.1659
     14 F         145.2043  142.8272  164.7205 F       1  UNL1       -0.1659
     15 F         142.3000  143.3023  165.3026 F       1  UNL1       -0.1659
     16 C         145.0095  141.7511  156.5632 C.3     1  UNL1        0.0758
     17 C         146.1858  142.3704  157.2580 C.3     1  UNL1        0.0198
     18 C         147.4585  142.6166  156.5031 C.3     1  UNL1        0.0017
     19 C         147.5547  142.2435  155.0535 C.3     1  UNL1        0.0001
     20 C         146.3784  141.6242  154.3587 C.3     1  UNL1        0.0017
     21 C         145.1058  141.3780  155.1135 C.3     1  UNL1        0.0198
     22 C         148.8274  142.4897  154.2985 C.3     1  UNL1        0.0000
     23 C         149.5896  141.7117  155.3298 C.3     1  UNL1        0.0000
     24 C         148.0651  143.2677  153.2672 C.3     1  UNL1        0.0000
     25 C         150.1000  142.7359  153.5437 C.3     1  UNL1        0.0000
     26 C         142.6219  140.7332  156.6768 C.3     1  UNL1        0.1202
     27 C         142.6897  139.2365  156.6057 C.ar    1  UNL1       -0.0023
     28 C         142.6062  138.4213  157.8622 C.ar    1  UNL1       -0.0025
     29 C         142.6740  136.9246  157.7910 C.ar    1  UNL1        0.0043
     30 C         142.8253  136.2429  156.4634 C.ar    1  UNL1        0.0537
     31 C         142.9088  137.0580  155.2070 C.ar    1  UNL1        0.0043
     32 C         142.8410  138.5548  155.2781 C.ar    1  UNL1       -0.0025
     33 C         142.8931  134.7461  156.3922 C.2     1  UNL1        0.2517
     34 O         141.7534  133.9710  155.8003 O.2     1  UNL1       -0.2697
     35 N         144.1007  134.0245  156.9129 N.am    1  UNL1       -0.2495
     36 H         144.8487  134.5332  157.3014 H       1  UNL1        0.1581
     37 C         144.1685  132.5277  156.8418 C.ar    1  UNL1        0.2389
     38 N         145.2365  131.7249  156.1600 N.ar    1  UNL1       -0.0922
     39 N         144.9083  130.2719  156.3368 N.ar    1  UNL1       -0.0216
     40 N         143.6373  130.1768  157.1278 N.ar    1  UNL1       -0.0454
     41 N         143.1801  131.5709  157.4399 N.ar    1  UNL1       -0.2269
     42 H         142.3731  131.8150  157.9481 H       1  UNL1        0.1936
@<TRIPOS>BOND
     1     2     3    1
     2     3     4   ar
     3     4     1    1
     4     1    26    1
     5    26    27    1
     6    27    28   ar
     7    28    29   ar
     8    29    30   ar
     9    30    33    1
    10    33    34    2
    11    33    35   am
    12    35    37    1
    13    37    38   ar
    14    38    39   ar
    15    39    40   ar
    16    40    41   ar
    17    30    31   ar
    18    31    32   ar
    19    16     1    1
    20    16    17    1
    21    17    18    1
    22    18    19    1
    23    19    22    1
    24    22    23    1
    25    22    24    1
    26    22    25    1
    27    19    20    1
    28    20    21    1
    29     4     5   ar
    30     5     6   ar
    31     6     7   ar
    32     7     8   ar
    33     8    12    1
    34    12    13    1
    35    12    14    1
    36    12    15    1
    37     8     9   ar
    38     9    10   ar
    39    10    11   ar
    40    11     3   ar
    41    32    27   ar
    42    21    16    1
    43    11     6   ar
    44    41    37   ar
    45    35    36    1
    46    41    42    1
@<TRIPOS>MOLECULE
*****
 42 46 0 0 0
SMALL
GASTEIGER

@<TRIPOS>ATOM
      1 N         143.9275  140.5354  156.7211 N.pl3   1  UNL1       -0.2770
      2 C         143.2650  143.1316  158.5841 C.3     1  UNL1        0.1332
      3 N         143.5833  141.7510  159.0768 N.ar    1  UNL1       -0.2976
      4 C         143.8878  140.5577  158.2205 C.ar    1  UNL1        0.2014
      5 N         144.1456  139.3905  159.1267 N.ar    1  UNL1       -0.2136
      6 C         144.0005  139.8625  160.5431 C.ar    1  UNL1        0.0999
      7 C         144.1399  139.1524  161.8570 C.ar    1  UNL1        0.0245
      8 C         143.9317  139.9012  163.1399 C.ar    1  UNL1        0.0730
      9 C         143.5842  141.3600  163.1090 C.ar    1  UNL1        0.0054
     10 C         143.4448  142.0701  161.7952 C.ar    1  UNL1        0.0187
     11 C         143.6529  141.3214  160.5122 C.ar    1  UNL1        0.0799
     12 C         144.0711  139.1910  164.4539 C.3     1  UNL1        0.4186
     13 F         144.2106  138.4810  165.7678 F       1  UNL1       -0.1659
     14 F         145.4574  139.7434  164.6053 F       1  UNL1       -0.1659
     15 F         142.6848  138.6386  164.3025 F       1  UNL1       -0.1659
     16 C         145.0755  141.1678  155.9918 C.3     1  UNL1        0.0758
     17 C         145.1502  141.0859  154.4959 C.3     1  UNL1        0.0198
     18 C         146.2983  141.7184  153.7665 C.3     1  UNL1        0.0017
     19 C         147.3716  142.4328  154.5331 C.3     1  UNL1        0.0001
     20 C         147.2969  142.5147  156.0290 C.3     1  UNL1        0.0017
     21 C         146.1489  141.8823  156.7583 C.3     1  UNL1        0.0198
     22 C         148.5197  143.0653  153.8037 C.3     1  UNL1        0.0000
     23 C         147.6557  144.2442  153.4662 C.3     1  UNL1        0.0000
     24 C         149.3836  141.8865  154.1412 C.3     1  UNL1        0.0000
     25 C         149.6676  143.6979  153.0744 C.3     1  UNL1        0.0000
     26 C         142.8191  139.8806  155.9512 C.3     1  UNL1        0.1202
     27 C         142.7502  138.3849  155.8613 C.ar    1  UNL1       -0.0023
     28 C         141.4698  137.6725  156.1827 C.ar    1  UNL1       -0.0025
     29 C         141.4008  136.1767  156.0928 C.ar    1  UNL1        0.0043
     30 C         142.6122  135.3935  155.6815 C.ar    1  UNL1        0.0537
     31 C         143.8925  136.1059  155.3602 C.ar    1  UNL1        0.0043
     32 C         143.9615  137.6016  155.4501 C.ar    1  UNL1       -0.0025
     33 C         142.5433  133.8977  155.5916 C.2     1  UNL1        0.2517
     34 O         143.7960  133.0809  155.7073 O.2     1  UNL1       -0.2697
     35 N         141.2215  133.2189  155.3859 N.am    1  UNL1       -0.2495
     36 H         140.3993  133.7550  155.3099 H       1  UNL1        0.1581
     37 C         141.1526  131.7232  155.2960 C.ar    1  UNL1        0.2389
     38 N         140.0306  130.9266  154.6988 N.ar    1  UNL1       -0.0922
     39 N         140.3781  129.4725  154.8212 N.ar    1  UNL1       -0.0216
     40 N         141.7148  129.3704  155.4941 N.ar    1  UNL1       -0.0454
     41 N         142.1934  130.7614  155.7875 N.ar    1  UNL1       -0.2269
     42 H         143.0418  131.0011  156.2258 H       1  UNL1        0.1936
@<TRIPOS>BOND
     1     2     3    1
     2     3     4   ar
     3     4     1    1
     4     1    26    1
     5    26    27    1
     6    27    28   ar
     7    28    29   ar
     8    29    30   ar
     9    30    33    1
    10    33    34    2
    11    33    35   am
    12    35    37    1
    13    37    38   ar
    14    38    39   ar
    15    39    40   ar
    16    40    41   ar
    17    30    31   ar
    18    31    32   ar
    19    16     1    1
    20    16    17    1
    21    17    18    1
    22    18    19    1
    23    19    22    1
    24    22    23    1
    25    22    24    1
    26    22    25    1
    27    19    20    1
    28    20    21    1
    29     4     5   ar
    30     5     6   ar
    31     6     7   ar
    32     7     8   ar
    33     8    12    1
    34    12    13    1
    35    12    14    1
    36    12    15    1
    37     8     9   ar
    38     9    10   ar
    39    10    11   ar
    40    11     3   ar
    41    32    27   ar
    42    21    16    1
    43    11     6   ar
    44    41    37   ar
    45    35    36    1
    46    41    42    1
@<TRIPOS>MOLECULE
*****
 42 46 0 0 0
SMALL
GASTEIGER

@<TRIPOS>ATOM
      1 N         142.1560  138.4447  157.6562 N.pl3   1  UNL1       -0.2770
      2 C         142.8835  141.1947  159.2556 C.3     1  UNL1        0.1332
      3 N         143.6260  140.6372  158.0775 N.ar    1  UNL1       -0.2976
      4 C         143.2916  139.3732  157.3423 C.ar    1  UNL1        0.2014
      5 N         144.2921  139.2007  156.2381 N.ar    1  UNL1       -0.2136
      6 C         145.2449  140.3581  156.2909 C.ar    1  UNL1        0.0999
      7 C         146.4341  140.7182  155.4507 C.ar    1  UNL1        0.0245
      8 C         147.2116  141.9662  155.7473 C.ar    1  UNL1        0.0730
      9 C         146.7999  142.8540  156.8841 C.ar    1  UNL1        0.0054
     10 C         145.6107  142.4938  157.7243 C.ar    1  UNL1        0.0187
     11 C         144.8332  141.2459  157.4277 C.ar    1  UNL1        0.0799
     12 C         148.4009  142.3264  154.9071 C.3     1  UNL1        0.4186
     13 F         149.5902  142.6866  154.0670 F       1  UNL1       -0.1659
     14 F         149.2506  141.3826  155.7054 F       1  UNL1       -0.1659
     15 F         147.5512  143.2702  154.1089 F       1  UNL1       -0.1659
     16 C         141.6824  138.2906  159.0710 C.3     1  UNL1        0.0758
     17 C         140.2546  138.5891  159.4207 C.3     1  UNL1        0.0198
     18 C         139.7810  138.4350  160.8357 C.3     1  UNL1        0.0017
     19 C         140.7352  137.9822  161.9008 C.3     1  UNL1        0.0001
     20 C         142.1630  137.6837  161.5511 C.3     1  UNL1        0.0017
     21 C         142.6366  137.8378  160.1362 C.3     1  UNL1        0.0198
     22 C         140.2616  137.8281  163.3158 C.3     1  UNL1        0.0000
     23 C         138.8429  137.7606  162.8335 C.3     1  UNL1        0.0000
     24 C         141.6803  137.8955  163.7980 C.3     1  UNL1        0.0000
     25 C         139.7880  137.6739  164.7306 C.3     1  UNL1        0.0000
     26 C         141.4941  137.6704  156.5551 C.3     1  UNL1        0.1202
     27 C         141.8604  136.2345  156.3230 C.ar    1  UNL1       -0.0023
     28 C         143.0234  135.6298  157.0523 C.ar    1  UNL1       -0.0025
     29 C         143.3898  134.1939  156.8201 C.ar    1  UNL1        0.0043
     30 C         142.5931  133.3626  155.8586 C.ar    1  UNL1        0.0537
     31 C         141.4301  133.9673  155.1294 C.ar    1  UNL1        0.0043
     32 C         141.0638  135.4033  155.3616 C.ar    1  UNL1       -0.0025
     33 C         142.9594  131.9267  155.6265 C.2     1  UNL1        0.2517
     34 O         141.8852  130.9087  155.3824 O.2     1  UNL1       -0.2697
     35 N         144.4000  131.5088  155.6384 N.am    1  UNL1       -0.2495
     36 H         145.1051  132.1770  155.7986 H       1  UNL1        0.1581
     37 C         144.7663  130.0729  155.4062 C.ar    1  UNL1        0.2389
     38 N         144.7507  128.9815  156.4351 N.ar    1  UNL1       -0.0922
     39 N         145.1873  127.7103  155.7692 N.ar    1  UNL1       -0.0216
     40 N         145.4727  128.0160  154.3287 N.ar    1  UNL1       -0.0454
     41 N         145.2125  129.4762  154.1044 N.ar    1  UNL1       -0.2269
     42 H         145.3164  129.9582  153.2523 H       1  UNL1        0.1936
@<TRIPOS>BOND
     1     2     3    1
     2     3     4   ar
     3     4     1    1
     4     1    26    1
     5    26    27    1
     6    27    28   ar
     7    28    29   ar
     8    29    30   ar
     9    30    33    1
    10    33    34    2
    11    33    35   am
    12    35    37    1
    13    37    38   ar
    14    38    39   ar
    15    39    40   ar
    16    40    41   ar
    17    30    31   ar
    18    31    32   ar
    19    16     1    1
    20    16    17    1
    21    17    18    1
    22    18    19    1
    23    19    22    1
    24    22    23    1
    25    22    24    1
    26    22    25    1
    27    19    20    1
    28    20    21    1
    29     4     5   ar
    30     5     6   ar
    31     6     7   ar
    32     7     8   ar
    33     8    12    1
    34    12    13    1
    35    12    14    1
    36    12    15    1
    37     8     9   ar
    38     9    10   ar
    39    10    11   ar
    40    11     3   ar
    41    32    27   ar
    42    21    16    1
    43    11     6   ar
    44    41    37   ar
    45    35    36    1
    46    41    42    1
