@<TRIPOS>MOLECULE
*****
 33 37 0 0 0
SMALL
GASTEIGER

@<TRIPOS>ATOM
      1 C         142.0727  144.3746  161.0911 C.3     1  UNL1        0.0730
      2 N         140.9211  144.3440  162.0518 N.3     1  UNL1       -0.2724
      3 C         140.0688  145.5143  162.4440 C.3     1  UNL1        0.0724
      4 C         139.0406  145.0313  163.4236 C.3     1  UNL1        0.0214
      5 C         138.1518  144.2704  164.3622 C.3     1  UNL1        0.0072
      6 C         139.2576  143.5625  163.6368 C.3     1  UNL1        0.0350
      7 C         140.4198  143.1377  162.7891 C.3     1  UNL1        0.0761
      8 C         138.9873  142.2082  164.2224 C.ar    1  UNL1       -0.0215
      9 C         138.2825  141.1653  163.4065 C.ar    1  UNL1       -0.0043
     10 C         138.0123  139.8111  163.9920 C.ar    1  UNL1        0.0035
     11 C         138.4468  139.4996  165.3934 C.ar    1  UNL1        0.0714
     12 C         139.1516  140.5424  166.2094 C.ar    1  UNL1        0.0035
     13 C         139.4219  141.8968  165.6238 C.ar    1  UNL1       -0.0043
     14 C         138.1766  138.1453  165.9790 C.3     1  UNL1        0.4186
     15 F         137.9064  136.7910  166.5645 F       1  UNL1       -0.1659
     16 F         139.0472  137.5184  164.9307 F       1  UNL1       -0.1659
     17 F         137.3059  138.7723  167.0273 F       1  UNL1       -0.1659
     18 C         142.4842  143.1233  160.3735 C.3     1  UNL1        0.0294
     19 C         143.8760  142.5885  160.5365 C.3     1  UNL1        0.0666
     20 S         144.0887  141.1952  161.0498 S.3     1  UNL1       -0.0756
     21 C         142.7681  140.3389  164.5978 C.ar    1  UNL1        0.1862
     22 N         141.7282  139.6863  163.7361 N.ar    1  UNL1       -0.1266
     23 N         142.0963  139.9276  162.3021 N.ar    1  UNL1       -0.1221
     24 C         143.3638  140.7294  162.2776 C.ar    1  UNL1        0.1933
     25 N         143.7790  140.9836  163.6964 N.ar    1  UNL1       -0.2872
     26 C         144.9921  141.7482  164.1364 C.3     1  UNL1        0.1340
     27 C         142.8672  140.3660  170.5969 C.3     1  UNL1        0.0538
     28 C         142.8425  140.3592  169.0971 C.ar    1  UNL1        0.0785
     29 C         142.7477  141.6522  168.3428 C.ar    1  UNL1        0.1136
     30 N         142.7229  141.6454  166.8430 N.ar    1  UNL1       -0.2379
     31 C         142.7929  140.3457  166.0976 C.ar    1  UNL1        0.1362
     32 C         142.8877  139.0527  166.8520 C.ar    1  UNL1        0.1206
     33 N         142.9125  139.0595  168.3518 N.ar    1  UNL1       -0.2449
@<TRIPOS>BOND
     1    27    28    1
     2    28    29   ar
     3    29    30   ar
     4    30    31   ar
     5    31    21    1
     6    21    22   ar
     7    22    23   ar
     8    23    24   ar
     9    24    20    1
    10    20    19    1
    11    19    18    1
    12    18     1    1
    13     1     2    1
    14     2     3    1
    15     4     3    1
    16     4     5    1
    17     5     6    1
    18     6     8    1
    19     8     9   ar
    20     9    10   ar
    21    10    11   ar
    22    11    14    1
    23    14    15    1
    24    14    16    1
    25    14    17    1
    26    11    12   ar
    27    12    13   ar
    28     6     7    1
    29    24    25   ar
    30    25    26    1
    31    31    32   ar
    32    32    33   ar
    33    33    28   ar
    34    25    21   ar
    35     7     2    1
    36     6     4    1
    37    13     8   ar
@<TRIPOS>MOLECULE
*****
 33 37 0 0 0
SMALL
GASTEIGER

@<TRIPOS>ATOM
      1 C         142.6498  144.2174  161.8030 C.3     1  UNL1        0.0730
      2 N         141.3657  144.1971  162.5782 N.3     1  UNL1       -0.2724
      3 C         140.4625  145.3702  162.8188 C.3     1  UNL1        0.0724
      4 C         139.2980  144.8983  163.6381 C.3     1  UNL1        0.0214
      5 C         138.2778  144.1483  164.4422 C.3     1  UNL1        0.0072
      6 C         139.4816  143.4334  163.9038 C.3     1  UNL1        0.0350
      7 C         140.7594  143.0001  163.2487 C.3     1  UNL1        0.0761
      8 C         139.1269  142.0870  164.4617 C.ar    1  UNL1       -0.0215
      9 C         139.5132  141.7321  165.8671 C.ar    1  UNL1       -0.0043
     10 C         139.1586  140.3858  166.4251 C.ar    1  UNL1        0.0035
     11 C         138.4177  139.3942  165.5779 C.ar    1  UNL1        0.0714
     12 C         138.0314  139.7490  164.1726 C.ar    1  UNL1        0.0035
     13 C         138.3861  141.0954  163.6145 C.ar    1  UNL1       -0.0043
     14 C         138.0631  138.0478  166.1359 C.3     1  UNL1        0.4186
     15 F         137.7084  136.7014  166.6939 F       1  UNL1       -0.1659
     16 F         137.3410  138.7090  167.2723 F       1  UNL1       -0.1659
     17 F         138.7851  137.3865  164.9995 F       1  UNL1       -0.1659
     18 C         143.1142  142.9829  161.0887 C.3     1  UNL1        0.0294
     19 C         144.4755  142.4201  161.3716 C.3     1  UNL1        0.0666
     20 S         144.6650  141.4443  162.4949 S.3     1  UNL1       -0.0756
     21 C         143.4002  141.8406  166.1430 C.ar    1  UNL1        0.1862
     22 N         144.2274  143.0821  165.9865 N.ar    1  UNL1       -0.1266
     23 N         144.8018  143.0848  164.6009 N.ar    1  UNL1       -0.1221
     24 C         144.3298  141.8449  163.9010 C.ar    1  UNL1        0.1933
     25 N         143.4635  141.0760  164.8541 N.ar    1  UNL1       -0.2872
     26 C         142.7805  139.7715  164.5684 C.3     1  UNL1        0.1340
     27 C         140.3705  140.2180  171.0612 C.3     1  UNL1        0.0538
     28 C         141.1279  140.6237  169.8316 C.ar    1  UNL1        0.0785
     29 C         141.1690  142.0647  169.4174 C.ar    1  UNL1        0.1136
     30 N         141.9264  142.4704  168.1878 N.ar    1  UNL1       -0.2379
     31 C         142.6428  141.4350  167.3726 C.ar    1  UNL1        0.1362
     32 C         142.6018  139.9939  167.7869 C.ar    1  UNL1        0.1206
     33 N         141.8443  139.5883  169.0164 N.ar    1  UNL1       -0.2449
@<TRIPOS>BOND
     1    27    28    1
     2    28    29   ar
     3    29    30   ar
     4    30    31   ar
     5    31    21    1
     6    21    22   ar
     7    22    23   ar
     8    23    24   ar
     9    24    20    1
    10    20    19    1
    11    19    18    1
    12    18     1    1
    13     1     2    1
    14     2     3    1
    15     4     3    1
    16     4     5    1
    17     5     6    1
    18     6     8    1
    19     8     9   ar
    20     9    10   ar
    21    10    11   ar
    22    11    14    1
    23    14    15    1
    24    14    16    1
    25    14    17    1
    26    11    12   ar
    27    12    13   ar
    28     6     7    1
    29    24    25   ar
    30    25    26    1
    31    31    32   ar
    32    32    33   ar
    33    33    28   ar
    34    25    21   ar
    35     7     2    1
    36     6     4    1
    37    13     8   ar
@<TRIPOS>MOLECULE
*****
 33 37 0 0 0
SMALL
GASTEIGER

@<TRIPOS>ATOM
      1 C         143.9727  143.9497  164.1395 C.3     1  UNL1        0.0730
      2 N         142.4790  143.9567  164.2780 N.3     1  UNL1       -0.2724
      3 C         141.5715  145.1133  163.9808 C.3     1  UNL1        0.0724
      4 C         140.1624  144.6797  164.2571 C.3     1  UNL1        0.0214
      5 C         138.8873  143.9734  164.6110 C.3     1  UNL1        0.0072
      6 C         140.1991  143.2551  164.7251 C.3     1  UNL1        0.0350
      7 C         141.6309  142.8082  164.7380 C.3     1  UNL1        0.0761
      8 C         139.6252  141.9565  165.2089 C.ar    1  UNL1       -0.0215
      9 C         138.6019  141.2347  164.3831 C.ar    1  UNL1       -0.0043
     10 C         138.0278  139.9361  164.8668 C.ar    1  UNL1        0.0035
     11 C         138.4771  139.3592  166.1765 C.ar    1  UNL1        0.0714
     12 C         139.5003  140.0809  167.0025 C.ar    1  UNL1        0.0035
     13 C         140.0744  141.3796  166.5187 C.ar    1  UNL1       -0.0043
     14 C         137.9031  138.0606  166.6604 C.3     1  UNL1        0.4186
     15 F         137.3291  136.7619  167.1442 F       1  UNL1       -0.1659
     16 F         138.4964  137.3571  165.4758 F       1  UNL1       -0.1659
     17 F         137.3098  138.7640  167.8449 F       1  UNL1       -0.1659
     18 C         144.7703  142.7981  164.6760 C.3     1  UNL1        0.0294
     19 C         145.4306  141.8384  163.7312 C.3     1  UNL1        0.0666
     20 S         144.9427  140.4231  163.6372 S.3     1  UNL1       -0.0756
     21 C         141.4669  140.0761  161.9451 C.ar    1  UNL1        0.1862
     22 N         141.2344  139.3492  163.2364 N.ar    1  UNL1       -0.1266
     23 N         142.5082  139.3907  164.0275 N.ar    1  UNL1       -0.1221
     24 C         143.5279  140.1432  163.2251 C.ar    1  UNL1        0.1933
     25 N         142.8843  140.5668  161.9381 N.ar    1  UNL1       -0.2872
     26 C         143.5426  141.3446  160.8373 C.3     1  UNL1        0.1340
     27 C         137.4348  140.8796  157.5751 C.3     1  UNL1        0.0538
     28 C         138.4428  140.6787  158.6676 C.ar    1  UNL1        0.0785
     29 C         138.8877  141.8437  159.5010 C.ar    1  UNL1        0.1136
     30 N         139.8957  141.6429  160.5935 N.ar    1  UNL1       -0.2379
     31 C         140.4588  140.2770  160.8526 C.ar    1  UNL1        0.1362
     32 C         140.0139  139.1119  160.0191 C.ar    1  UNL1        0.1206
     33 N         139.0059  139.3128  158.9266 N.ar    1  UNL1       -0.2449
@<TRIPOS>BOND
     1    27    28    1
     2    28    29   ar
     3    29    30   ar
     4    30    31   ar
     5    31    21    1
     6    21    22   ar
     7    22    23   ar
     8    23    24   ar
     9    24    20    1
    10    20    19    1
    11    19    18    1
    12    18     1    1
    13     1     2    1
    14     2     3    1
    15     4     3    1
    16     4     5    1
    17     5     6    1
    18     6     8    1
    19     8     9   ar
    20     9    10   ar
    21    10    11   ar
    22    11    14    1
    23    14    15    1
    24    14    16    1
    25    14    17    1
    26    11    12   ar
    27    12    13   ar
    28     6     7    1
    29    24    25   ar
    30    25    26    1
    31    31    32   ar
    32    32    33   ar
    33    33    28   ar
    34    25    21   ar
    35     7     2    1
    36     6     4    1
    37    13     8   ar
@<TRIPOS>MOLECULE
*****
 33 37 0 0 0
SMALL
GASTEIGER

@<TRIPOS>ATOM
      1 C         141.3894  139.4083  158.7866 C.3     1  UNL1        0.0730
      2 N         140.3834  139.2447  159.8872 N.3     1  UNL1       -0.2724
      3 C         139.5558  138.0218  160.1506 C.3     1  UNL1        0.0724
      4 C         138.6894  138.2966  161.3438 C.3     1  UNL1        0.0214
      5 C         137.9642  138.8513  162.5339 C.3     1  UNL1        0.0072
      6 C         138.9815  139.6894  161.8178 C.3     1  UNL1        0.0350
      7 C         140.0284  140.2754  160.9176 C.3     1  UNL1        0.0761
      8 C         138.8391  140.8952  162.6985 C.ar    1  UNL1       -0.0215
      9 C         139.7277  141.0586  163.8958 C.ar    1  UNL1       -0.0043
     10 C         139.5854  142.2644  164.7766 C.ar    1  UNL1        0.0035
     11 C         138.5544  143.3069  164.4600 C.ar    1  UNL1        0.0714
     12 C         137.6657  143.1436  163.2627 C.ar    1  UNL1        0.0035
     13 C         137.8081  141.9377  162.3819 C.ar    1  UNL1       -0.0043
     14 C         138.4120  144.5127  165.3407 C.3     1  UNL1        0.4186
     15 F         138.2697  145.7186  166.2214 F       1  UNL1       -0.1659
     16 F         139.8939  144.5176  165.5735 F       1  UNL1       -0.1659
     17 F         136.9302  144.5079  165.1080 F       1  UNL1       -0.1659
     18 C         142.7542  138.8008  158.9216 C.3     1  UNL1        0.0294
     19 C         143.6035  139.1226  160.1153 C.3     1  UNL1        0.0666
     20 S         143.7957  138.1006  161.1964 S.3     1  UNL1       -0.0756
     21 C         142.6888  139.0905  164.7825 C.ar    1  UNL1        0.1862
     22 N         141.6239  138.1008  164.4133 N.ar    1  UNL1       -0.1266
     23 N         141.9088  137.6095  163.0249 N.ar    1  UNL1       -0.1221
     24 C         143.1500  138.2955  162.5361 C.ar    1  UNL1        0.1933
     25 N         143.6320  139.2108  163.6224 N.ar    1  UNL1       -0.2872
     26 C         144.8444  140.0918  163.5595 C.3     1  UNL1        0.1340
     27 C         143.1033  142.0483  169.9863 C.3     1  UNL1        0.0538
     28 C         142.9997  141.3089  168.6853 C.ar    1  UNL1        0.0785
     29 C         142.9898  142.0664  167.3908 C.ar    1  UNL1        0.1136
     30 N         142.8862  141.3270  166.0898 N.ar    1  UNL1       -0.2379
     31 C         142.7925  139.8299  166.0835 C.ar    1  UNL1        0.1362
     32 C         142.8024  139.0724  167.3780 C.ar    1  UNL1        0.1206
     33 N         142.9060  139.8118  168.6790 N.ar    1  UNL1       -0.2449
@<TRIPOS>BOND
     1    27    28    1
     2    28    29   ar
     3    29    30   ar
     4    30    31   ar
     5    31    21    1
     6    21    22   ar
     7    22    23   ar
     8    23    24   ar
     9    24    20    1
    10    20    19    1
    11    19    18    1
    12    18     1    1
    13     1     2    1
    14     2     3    1
    15     4     3    1
    16     4     5    1
    17     5     6    1
    18     6     8    1
    19     8     9   ar
    20     9    10   ar
    21    10    11   ar
    22    11    14    1
    23    14    15    1
    24    14    16    1
    25    14    17    1
    26    11    12   ar
    27    12    13   ar
    28     6     7    1
    29    24    25   ar
    30    25    26    1
    31    31    32   ar
    32    32    33   ar
    33    33    28   ar
    34    25    21   ar
    35     7     2    1
    36     6     4    1
    37    13     8   ar
@<TRIPOS>MOLECULE
*****
 33 37 0 0 0
SMALL
GASTEIGER

@<TRIPOS>ATOM
      1 C         143.4627  144.3262  163.5116 C.3     1  UNL1        0.0730
      2 N         141.9962  144.2484  163.8173 N.3     1  UNL1       -0.2724
      3 C         141.0053  145.3653  163.6742 C.3     1  UNL1        0.0724
      4 C         139.6599  144.8472  164.0881 C.3     1  UNL1        0.0214
      5 C         138.4696  144.0612  164.5523 C.3     1  UNL1        0.0072
      6 C         139.8193  143.4101  164.4871 C.3     1  UNL1        0.0350
      7 C         141.2632  143.0400  164.3197 C.3     1  UNL1        0.0761
      8 C         139.3684  142.0655  164.9759 C.ar    1  UNL1       -0.0215
      9 C         138.5098  141.1993  164.1027 C.ar    1  UNL1       -0.0043
     10 C         138.0589  139.8548  164.5914 C.ar    1  UNL1        0.0035
     11 C         138.4666  139.3764  165.9533 C.ar    1  UNL1        0.0714
     12 C         139.3252  140.2425  166.8266 C.ar    1  UNL1        0.0035
     13 C         139.7761  141.5872  166.3378 C.ar    1  UNL1       -0.0043
     14 C         138.0157  138.0319  166.4421 C.3     1  UNL1        0.4186
     15 F         137.5648  136.6873  166.9308 F       1  UNL1       -0.1659
     16 F         138.7230  137.3769  165.2927 F       1  UNL1       -0.1659
     17 F         137.3084  138.6867  167.5914 F       1  UNL1       -0.1659
     18 C         144.4668  143.8913  164.5377 C.3     1  UNL1        0.0294
     19 C         144.7975  142.4366  164.6938 C.3     1  UNL1        0.0666
     20 S         145.4670  141.6955  163.5746 S.3     1  UNL1       -0.0756
     21 C         143.4744  139.4396  161.1239 C.ar    1  UNL1        0.1862
     22 N         143.6878  138.5005  162.2739 N.ar    1  UNL1       -0.1266
     23 N         144.4602  139.2313  163.3320 N.ar    1  UNL1       -0.1221
     24 C         144.7242  140.6220  162.8359 C.ar    1  UNL1        0.1933
     25 N         144.1150  140.7507  161.4712 N.ar    1  UNL1       -0.2872
     26 C         144.1416  141.9756  160.6058 C.3     1  UNL1        0.1340
     27 C         140.5689  138.1738  156.0292 C.3     1  UNL1        0.0538
     28 C         141.2953  138.4902  157.3029 C.ar    1  UNL1        0.0785
     29 C         142.4887  137.6767  157.7077 C.ar    1  UNL1        0.1136
     30 N         143.2151  137.9932  158.9814 N.ar    1  UNL1       -0.2379
     31 C         142.7480  139.1232  159.8503 C.ar    1  UNL1        0.1362
     32 C         141.5546  139.9367  159.4455 C.ar    1  UNL1        0.1206
     33 N         140.8282  139.6202  158.1718 N.ar    1  UNL1       -0.2449
@<TRIPOS>BOND
     1    27    28    1
     2    28    29   ar
     3    29    30   ar
     4    30    31   ar
     5    31    21    1
     6    21    22   ar
     7    22    23   ar
     8    23    24   ar
     9    24    20    1
    10    20    19    1
    11    19    18    1
    12    18     1    1
    13     1     2    1
    14     2     3    1
    15     4     3    1
    16     4     5    1
    17     5     6    1
    18     6     8    1
    19     8     9   ar
    20     9    10   ar
    21    10    11   ar
    22    11    14    1
    23    14    15    1
    24    14    16    1
    25    14    17    1
    26    11    12   ar
    27    12    13   ar
    28     6     7    1
    29    24    25   ar
    30    25    26    1
    31    31    32   ar
    32    32    33   ar
    33    33    28   ar
    34    25    21   ar
    35     7     2    1
    36     6     4    1
    37    13     8   ar
@<TRIPOS>MOLECULE
*****
 33 37 0 0 0
SMALL
GASTEIGER

@<TRIPOS>ATOM
      1 C         144.1081  139.9809  161.2716 C.3     1  UNL1        0.0730
      2 N         144.1534  141.0519  162.3209 N.3     1  UNL1       -0.2724
      3 C         145.3908  141.6055  162.9629 C.3     1  UNL1        0.0724
      4 C         144.9714  142.6530  163.9512 C.3     1  UNL1        0.0214
      5 C         144.2623  143.6274  164.8443 C.3     1  UNL1        0.0072
      6 C         143.4747  142.7468  163.9200 C.3     1  UNL1        0.0350
      7 C         142.9691  141.7573  162.9124 C.3     1  UNL1        0.0761
      8 C         142.1258  143.2682  164.3183 C.ar    1  UNL1       -0.0215
      9 C         141.4745  144.3547  163.5150 C.ar    1  UNL1       -0.0043
     10 C         140.1256  144.8761  163.9132 C.ar    1  UNL1        0.0035
     11 C         139.4280  144.3110  165.1149 C.ar    1  UNL1        0.0714
     12 C         140.0792  143.2245  165.9182 C.ar    1  UNL1        0.0035
     13 C         141.4282  142.7031  165.5199 C.ar    1  UNL1       -0.0043
     14 C         138.0791  144.8323  165.5132 C.3     1  UNL1        0.4186
     15 F         136.7303  145.3537  165.9116 F       1  UNL1       -0.1659
     16 F         138.6895  145.4949  166.7127 F       1  UNL1       -0.1659
     17 F         137.4688  144.1698  164.3138 F       1  UNL1       -0.1659
     18 C         142.9512  139.9126  160.3192 C.3     1  UNL1        0.0294
     19 C         141.9566  138.7949  160.4265 C.3     1  UNL1        0.0666
     20 S         141.8321  138.0220  161.7060 S.3     1  UNL1       -0.0756
     21 C         140.3062  139.2526  165.0560 C.ar    1  UNL1        0.1862
     22 N         139.1985  139.5747  164.0973 N.ar    1  UNL1       -0.1266
     23 N         139.6352  139.1529  162.7257 N.ar    1  UNL1       -0.1221
     24 C         141.0129  138.5702  162.8367 C.ar    1  UNL1        0.1933
     25 N         141.4276  138.6318  164.2769 N.ar    1  UNL1       -0.2872
     26 C         142.7343  138.1560  164.8393 C.3     1  UNL1        0.1340
     27 C         140.2597  140.2690  170.9691 C.3     1  UNL1        0.0538
     28 C         140.2714  140.0149  169.4909 C.ar    1  UNL1        0.0785
     29 C         141.5721  139.9899  168.7444 C.ar    1  UNL1        0.1136
     30 N         141.5837  139.7358  167.2661 N.ar    1  UNL1       -0.2379
     31 C         140.2946  139.5067  166.5343 C.ar    1  UNL1        0.1362
     32 C         138.9938  139.5318  167.2808 C.ar    1  UNL1        0.1206
     33 N         138.9822  139.7859  168.7591 N.ar    1  UNL1       -0.2449
@<TRIPOS>BOND
     1    27    28    1
     2    28    29   ar
     3    29    30   ar
     4    30    31   ar
     5    31    21    1
     6    21    22   ar
     7    22    23   ar
     8    23    24   ar
     9    24    20    1
    10    20    19    1
    11    19    18    1
    12    18     1    1
    13     1     2    1
    14     2     3    1
    15     4     3    1
    16     4     5    1
    17     5     6    1
    18     6     8    1
    19     8     9   ar
    20     9    10   ar
    21    10    11   ar
    22    11    14    1
    23    14    15    1
    24    14    16    1
    25    14    17    1
    26    11    12   ar
    27    12    13   ar
    28     6     7    1
    29    24    25   ar
    30    25    26    1
    31    31    32   ar
    32    32    33   ar
    33    33    28   ar
    34    25    21   ar
    35     7     2    1
    36     6     4    1
    37    13     8   ar
@<TRIPOS>MOLECULE
*****
 33 37 0 0 0
SMALL
GASTEIGER

@<TRIPOS>ATOM
      1 C         144.0645  143.9536  164.1941 C.3     1  UNL1        0.0730
      2 N         142.5677  143.9598  164.2928 N.3     1  UNL1       -0.2724
      3 C         141.6675  145.1143  163.9664 C.3     1  UNL1        0.0724
      4 C         140.2518  144.6806  164.2071 C.3     1  UNL1        0.0214
      5 C         138.9683  143.9748  164.5302 C.3     1  UNL1        0.0072
      6 C         140.2773  143.2581  164.6823 C.3     1  UNL1        0.0350
      7 C         141.7085  142.8126  164.7352 C.3     1  UNL1        0.0761
      8 C         139.6917  141.9611  165.1565 C.ar    1  UNL1       -0.0215
      9 C         139.9650  141.4801  166.5507 C.ar    1  UNL1       -0.0043
     10 C         139.3795  140.1831  167.0250 C.ar    1  UNL1        0.0035
     11 C         138.5205  139.3671  166.1050 C.ar    1  UNL1        0.0714
     12 C         138.2471  139.8481  164.7108 C.ar    1  UNL1        0.0035
     13 C         138.8327  141.1452  164.2365 C.ar    1  UNL1       -0.0043
     14 C         137.9349  138.0702  166.5792 C.3     1  UNL1        0.4186
     15 F         137.3493  136.7732  167.0535 F       1  UNL1       -0.1659
     16 F         137.3926  138.7600  167.7960 F       1  UNL1       -0.1659
     17 F         138.4771  137.3804  165.3626 F       1  UNL1       -0.1659
     18 C         144.8499  142.8170  164.7783 C.3     1  UNL1        0.0294
     19 C         145.5669  141.8583  163.8746 C.3     1  UNL1        0.0666
     20 S         144.8506  140.6542  163.3388 S.3     1  UNL1       -0.0756
     21 C         143.0525  140.0499  159.9524 C.ar    1  UNL1        0.1862
     22 N         143.5604  141.4489  159.7654 N.ar    1  UNL1       -0.1266
     23 N         144.2957  141.8455  161.0111 N.ar    1  UNL1       -0.1221
     24 C         144.2424  140.6917  161.9681 C.ar    1  UNL1        0.1933
     25 N         143.4740  139.5820  161.3138 N.ar    1  UNL1       -0.2872
     26 C         143.1790  138.2399  161.9153 C.3     1  UNL1        0.1340
     27 C         139.8904  136.8820  155.9568 C.3     1  UNL1        0.0538
     28 C         140.6809  137.6740  156.9557 C.ar    1  UNL1        0.0785
     29 C         139.9745  138.4284  158.0428 C.ar    1  UNL1        0.1136
     30 N         140.7651  139.2204  159.0417 N.ar    1  UNL1       -0.2379
     31 C         142.2620  139.2579  158.9535 C.ar    1  UNL1        0.1362
     32 C         142.9683  138.5035  157.8664 C.ar    1  UNL1        0.1206
     33 N         142.1778  137.7115  156.8675 N.ar    1  UNL1       -0.2449
@<TRIPOS>BOND
     1    27    28    1
     2    28    29   ar
     3    29    30   ar
     4    30    31   ar
     5    31    21    1
     6    21    22   ar
     7    22    23   ar
     8    23    24   ar
     9    24    20    1
    10    20    19    1
    11    19    18    1
    12    18     1    1
    13     1     2    1
    14     2     3    1
    15     4     3    1
    16     4     5    1
    17     5     6    1
    18     6     8    1
    19     8     9   ar
    20     9    10   ar
    21    10    11   ar
    22    11    14    1
    23    14    15    1
    24    14    16    1
    25    14    17    1
    26    11    12   ar
    27    12    13   ar
    28     6     7    1
    29    24    25   ar
    30    25    26    1
    31    31    32   ar
    32    32    33   ar
    33    33    28   ar
    34    25    21   ar
    35     7     2    1
    36     6     4    1
    37    13     8   ar
@<TRIPOS>MOLECULE
*****
 33 37 0 0 0
SMALL
GASTEIGER

@<TRIPOS>ATOM
      1 C         144.8881  142.7715  162.5680 C.3     1  UNL1        0.0730
      2 N         144.3973  141.7395  163.5398 N.3     1  UNL1       -0.2724
      3 C         144.6446  140.2625  163.4571 C.3     1  UNL1        0.0724
      4 C         143.9732  139.6136  164.6311 C.3     1  UNL1        0.0214
      5 C         143.2170  139.2581  165.8768 C.3     1  UNL1        0.0072
      6 C         143.3110  140.6898  165.4393 C.3     1  UNL1        0.0350
      7 C         143.5731  142.0037  164.7649 C.3     1  UNL1        0.0761
      8 C         142.5064  141.2532  166.5729 C.ar    1  UNL1       -0.0215
      9 C         143.1893  142.0068  167.6756 C.ar    1  UNL1       -0.0043
     10 C         142.3848  142.5702  168.8093 C.ar    1  UNL1        0.0035
     11 C         140.8972  142.3801  168.8404 C.ar    1  UNL1        0.0714
     12 C         140.2142  141.6266  167.7378 C.ar    1  UNL1        0.0035
     13 C         141.0188  141.0631  166.6041 C.ar    1  UNL1       -0.0043
     14 C         140.0926  142.9435  169.9740 C.3     1  UNL1        0.4186
     15 F         139.2881  143.5069  171.1077 F       1  UNL1       -0.1659
     16 F         140.8992  144.2070  169.9185 F       1  UNL1       -0.1659
     17 F         139.2861  141.6800  170.0296 F       1  UNL1       -0.1659
     18 C         144.0400  143.1584  161.3928 C.3     1  UNL1        0.0294
     19 C         144.0492  142.3162  160.1517 C.3     1  UNL1        0.0666
     20 S         142.8025  141.6021  159.7206 S.3     1  UNL1       -0.0756
     21 C         140.9742  139.3782  162.3239 C.ar    1  UNL1        0.1862
     22 N         141.6757  138.3409  161.4981 N.ar    1  UNL1       -0.1266
     23 N         142.4459  139.0477  160.4224 N.ar    1  UNL1       -0.1221
     24 C         142.2205  140.5219  160.5833 C.ar    1  UNL1        0.1933
     25 N         141.3110  140.7262  161.7585 N.ar    1  UNL1       -0.2872
     26 C         140.8237  142.0466  162.2772 C.3     1  UNL1        0.1340
     27 C         137.4418  138.3215  167.0573 C.3     1  UNL1        0.0538
     28 C         138.3249  138.5857  165.8739 C.ar    1  UNL1        0.0785
     29 C         139.4273  137.6277  165.5321 C.ar    1  UNL1        0.1136
     30 N         140.3104  137.8919  164.3488 N.ar    1  UNL1       -0.2379
     31 C         140.0911  139.1141  163.5072 C.ar    1  UNL1        0.1362
     32 C         138.9887  140.0720  163.8490 C.ar    1  UNL1        0.1206
     33 N         138.1055  139.8078  165.0324 N.ar    1  UNL1       -0.2449
@<TRIPOS>BOND
     1    27    28    1
     2    28    29   ar
     3    29    30   ar
     4    30    31   ar
     5    31    21    1
     6    21    22   ar
     7    22    23   ar
     8    23    24   ar
     9    24    20    1
    10    20    19    1
    11    19    18    1
    12    18     1    1
    13     1     2    1
    14     2     3    1
    15     4     3    1
    16     4     5    1
    17     5     6    1
    18     6     8    1
    19     8     9   ar
    20     9    10   ar
    21    10    11   ar
    22    11    14    1
    23    14    15    1
    24    14    16    1
    25    14    17    1
    26    11    12   ar
    27    12    13   ar
    28     6     7    1
    29    24    25   ar
    30    25    26    1
    31    31    32   ar
    32    32    33   ar
    33    33    28   ar
    34    25    21   ar
    35     7     2    1
    36     6     4    1
    37    13     8   ar
@<TRIPOS>MOLECULE
*****
 33 37 0 0 0
SMALL
GASTEIGER

@<TRIPOS>ATOM
      1 C         142.5863  138.0794  160.0989 C.3     1  UNL1        0.0730
      2 N         141.1533  138.3857  160.4199 N.3     1  UNL1       -0.2724
      3 C         140.0600  138.6334  159.4234 C.3     1  UNL1        0.0724
      4 C         138.7932  138.8989  160.1814 C.3     1  UNL1        0.0214
      5 C         137.7076  139.1224  161.1920 C.3     1  UNL1        0.0072
      6 C         139.1037  138.8154  161.6466 C.3     1  UNL1        0.0350
      7 C         140.5623  138.4982  161.7940 C.3     1  UNL1        0.0761
      8 C         138.8044  138.8637  163.1156 C.ar    1  UNL1       -0.0215
      9 C         138.4828  140.1731  163.7728 C.ar    1  UNL1       -0.0043
     10 C         138.1835  140.2215  165.2419 C.ar    1  UNL1        0.0035
     11 C         138.2059  138.9605  166.0537 C.ar    1  UNL1        0.0714
     12 C         138.5275  137.6510  165.3966 C.ar    1  UNL1        0.0035
     13 C         138.8268  137.6026  163.9275 C.ar    1  UNL1       -0.0043
     14 C         137.9066  139.0088  167.5228 C.3     1  UNL1        0.4186
     15 F         137.6075  139.0572  168.9918 F       1  UNL1       -0.1659
     16 F         138.9333  140.0886  167.6963 F       1  UNL1       -0.1659
     17 F         136.8800  137.9290  167.3492 F       1  UNL1       -0.1659
     18 C         143.5175  139.1844  159.6967 C.3     1  UNL1        0.0294
     19 C         144.0287  140.1467  160.7275 C.3     1  UNL1        0.0666
     20 S         144.1082  139.7317  162.1668 S.3     1  UNL1       -0.0756
     21 C         143.2212  141.9168  165.2496 C.ar    1  UNL1        0.1862
     22 N         144.2784  142.7554  164.5945 N.ar    1  UNL1       -0.1266
     23 N         144.7394  142.0389  163.3599 N.ar    1  UNL1       -0.1221
     24 C         143.9671  140.7575  163.2520 C.ar    1  UNL1        0.1933
     25 N         143.0288  140.6821  164.4199 N.ar    1  UNL1       -0.2872
     26 C         142.0670  139.5676  164.7076 C.3     1  UNL1        0.1340
     27 C         140.2787  143.2649  170.3018 C.3     1  UNL1        0.0538
     28 C         141.0143  142.9279  169.0388 C.ar    1  UNL1        0.0785
     29 C         140.2975  142.9613  167.7216 C.ar    1  UNL1        0.1136
     30 N         141.0331  142.6243  166.4586 N.ar    1  UNL1       -0.2379
     31 C         142.4856  142.2538  166.5127 C.ar    1  UNL1        0.1362
     32 C         143.2025  142.2204  167.8298 C.ar    1  UNL1        0.1206
     33 N         142.4668  142.5574  169.0929 N.ar    1  UNL1       -0.2449
@<TRIPOS>BOND
     1    27    28    1
     2    28    29   ar
     3    29    30   ar
     4    30    31   ar
     5    31    21    1
     6    21    22   ar
     7    22    23   ar
     8    23    24   ar
     9    24    20    1
    10    20    19    1
    11    19    18    1
    12    18     1    1
    13     1     2    1
    14     2     3    1
    15     4     3    1
    16     4     5    1
    17     5     6    1
    18     6     8    1
    19     8     9   ar
    20     9    10   ar
    21    10    11   ar
    22    11    14    1
    23    14    15    1
    24    14    16    1
    25    14    17    1
    26    11    12   ar
    27    12    13   ar
    28     6     7    1
    29    24    25   ar
    30    25    26    1
    31    31    32   ar
    32    32    33   ar
    33    33    28   ar
    34    25    21   ar
    35     7     2    1
    36     6     4    1
    37    13     8   ar
