@<TRIPOS>MOLECULE
*****
 34 37 0 0 0
SMALL
GASTEIGER

@<TRIPOS>ATOM
      1 C         139.0798  139.3097  165.3901 C.ar    1  UNL1        0.0537
      2 C         138.4319  140.3516  164.5271 C.ar    1  UNL1        0.0042
      3 C         138.1019  140.0417  163.0971 C.ar    1  UNL1       -0.0025
      4 C         138.4198  138.6899  162.5301 C.ar    1  UNL1       -0.0026
      5 C         139.0677  137.6480  163.3931 C.ar    1  UNL1       -0.0025
      6 C         139.3978  137.9580  164.8231 C.ar    1  UNL1        0.0042
      7 N         140.6518  140.3923  167.1528 N.am    1  UNL1       -0.2794
      8 C         139.4099  139.6197  166.8202 C.2     1  UNL1        0.2495
      9 O         138.4979  139.1571  167.9176 O.2     1  UNL1       -0.2698
     10 H         141.2504  140.6959  166.4325 H       1  UNL1        0.1552
     11 N         142.9765  139.0406  168.4828 N.pl3   1  UNL1       -0.3560
     12 C         142.1442  140.0265  169.2478 C.ar    1  UNL1        0.0552
     13 C         142.4742  140.3365  170.6778 C.ar    1  UNL1        0.0153
     14 C         141.6418  141.3223  171.4429 C.ar    1  UNL1        0.0013
     15 C         140.4795  141.9982  170.7779 C.ar    1  UNL1        0.0014
     16 C         140.1495  141.6882  169.3479 C.ar    1  UNL1        0.0159
     17 C         140.9819  140.7023  168.5829 C.ar    1  UNL1        0.0636
     18 H         143.7394  138.5970  168.9192 H       1  UNL1        0.1424
     19 H         142.7599  138.8371  167.5442 H       1  UNL1        0.1424
     20 C         138.0897  138.3799  161.1000 C.3     1  UNL1        0.1165
     21 N         138.7724  139.1281  159.9936 N.pl3   1  UNL1       -0.2990
     22 H         138.2477  139.7046  159.3924 H       1  UNL1        0.1500
     23 C         140.2545  138.9979  159.8033 C.ar    1  UNL1        0.2171
     24 N         140.7977  138.3579  158.5601 N.ar    1  UNL1       -0.2123
     25 C         142.2798  138.2276  158.3698 C.ar    1  UNL1        0.1034
     26 C         143.2189  138.7375  159.4226 C.ar    1  UNL1        0.0400
     27 C         142.6757  139.3775  160.6657 C.ar    1  UNL1        0.0872
     28 N         141.1935  139.5077  160.8560 N.ar    1  UNL1       -0.2137
     29 C         143.6147  139.8873  161.7185 C.ar    1  UNL1        0.0370
     30 C         143.7228  139.1764  163.0350 C.ar    1  UNL1        0.0046
     31 C         144.6617  139.6862  164.0878 C.ar    1  UNL1        0.0207
     32 C         145.4927  140.9069  163.8242 C.ar    1  UNL1        0.0989
     33 N         145.3847  141.6177  162.5078 N.ar    1  UNL1       -0.2423
     34 C         144.4457  141.1079  161.4549 C.ar    1  UNL1        0.1003
@<TRIPOS>BOND
     1    11    12    1
     2    12    13   ar
     3    13    14   ar
     4    14    15   ar
     5    15    16   ar
     6    16    17   ar
     7    17     7    1
     8     7     8   am
     9     8     9    2
    10     8     1    1
    11     1     2   ar
    12     2     3   ar
    13     3     4   ar
    14     4    20    1
    15    20    21    1
    16    21    23    1
    17    23    24   ar
    18    24    25   ar
    19    25    26   ar
    20    26    27   ar
    21    27    29    1
    22    29    30   ar
    23    30    31   ar
    24    31    32   ar
    25    32    33   ar
    26    33    34   ar
    27    27    28   ar
    28     4     5   ar
    29     5     6   ar
    30    17    12   ar
    31     6     1   ar
    32    28    23   ar
    33    34    29   ar
    34    11    18    1
    35    11    19    1
    36     7    10    1
    37    21    22    1
@<TRIPOS>MOLECULE
*****
 34 37 0 0 0
SMALL
GASTEIGER

@<TRIPOS>ATOM
      1 C         141.5527  138.0241  161.4751 C.ar    1  UNL1        0.0537
      2 C         142.1911  137.8733  162.8241 C.ar    1  UNL1        0.0042
      3 C         141.3362  137.8010  164.0545 C.ar    1  UNL1       -0.0025
      4 C         139.8430  137.8796  163.9359 C.ar    1  UNL1       -0.0026
      5 C         139.2047  138.0304  162.5869 C.ar    1  UNL1       -0.0025
      6 C         140.0595  138.1027  161.3565 C.ar    1  UNL1        0.0042
      7 N         141.7738  138.0383  158.8865 N.am    1  UNL1       -0.2794
      8 C         142.4077  138.0964  160.2447 C.2     1  UNL1        0.2495
      9 O         143.8965  138.2267  160.3725 O.2     1  UNL1       -0.2698
     10 H         140.7966  137.9527  158.8026 H       1  UNL1        0.1552
     11 N         142.7531  140.6947  157.8942 N.pl3   1  UNL1       -0.3560
     12 C         143.1184  139.4387  157.1599 C.ar    1  UNL1        0.0552
     13 C         143.9733  139.5109  155.9296 C.ar    1  UNL1        0.0153
     14 C         144.3385  138.2550  155.1953 C.ar    1  UNL1        0.0013
     15 C         143.8489  136.9268  155.6914 C.ar    1  UNL1        0.0014
     16 C         142.9940  136.8546  156.9217 C.ar    1  UNL1        0.0159
     17 C         142.6287  138.1105  157.6560 C.ar    1  UNL1        0.0636
     18 H         143.0745  141.5664  157.5686 H       1  UNL1        0.1424
     19 H         142.1920  140.6473  158.7018 H       1  UNL1        0.1424
     20 C         138.9880  137.8073  165.1664 C.3     1  UNL1        0.1165
     21 N         138.1775  138.9971  165.5874 N.pl3   1  UNL1       -0.2990
     22 H         137.2237  138.8903  165.8070 H       1  UNL1        0.1500
     23 C         138.8200  140.3498  165.6737 C.ar    1  UNL1        0.2171
     24 N         138.6066  141.3527  164.5789 N.ar    1  UNL1       -0.2123
     25 C         139.2491  142.7054  164.6653 C.ar    1  UNL1        0.1034
     26 C         140.1051  143.0551  165.8465 C.ar    1  UNL1        0.0400
     27 C         140.3184  142.0522  166.9413 C.ar    1  UNL1        0.0872
     28 N         139.6758  140.6995  166.8549 N.ar    1  UNL1       -0.2137
     29 C         141.1742  142.4018  168.1225 C.ar    1  UNL1        0.0370
     30 C         142.5876  141.9050  168.1979 C.ar    1  UNL1        0.0046
     31 C         143.4435  142.2547  169.3791 C.ar    1  UNL1        0.0207
     32 C         142.8860  143.1012  170.4849 C.ar    1  UNL1        0.0989
     33 N         141.4727  143.5980  170.4094 N.ar    1  UNL1       -0.2423
     34 C         140.6168  143.2483  169.2282 C.ar    1  UNL1        0.1003
@<TRIPOS>BOND
     1    11    12    1
     2    12    13   ar
     3    13    14   ar
     4    14    15   ar
     5    15    16   ar
     6    16    17   ar
     7    17     7    1
     8     7     8   am
     9     8     9    2
    10     8     1    1
    11     1     2   ar
    12     2     3   ar
    13     3     4   ar
    14     4    20    1
    15    20    21    1
    16    21    23    1
    17    23    24   ar
    18    24    25   ar
    19    25    26   ar
    20    26    27   ar
    21    27    29    1
    22    29    30   ar
    23    30    31   ar
    24    31    32   ar
    25    32    33   ar
    26    33    34   ar
    27    27    28   ar
    28     4     5   ar
    29     5     6   ar
    30    17    12   ar
    31     6     1   ar
    32    28    23   ar
    33    34    29   ar
    34    11    18    1
    35    11    19    1
    36     7    10    1
    37    21    22    1
@<TRIPOS>MOLECULE
*****
 34 37 0 0 0
SMALL
GASTEIGER

@<TRIPOS>ATOM
      1 C         138.8975  139.6325  165.3657 C.ar    1  UNL1        0.0537
      2 C         139.1771  138.3452  164.6483 C.ar    1  UNL1        0.0042
      3 C         138.7549  138.1761  163.2190 C.ar    1  UNL1       -0.0025
      4 C         138.0532  139.2944  162.5070 C.ar    1  UNL1       -0.0026
      5 C         137.7736  140.5817  163.2244 C.ar    1  UNL1       -0.0025
      6 C         138.1957  140.7507  164.6537 C.ar    1  UNL1        0.0042
      7 N         140.5412  140.6068  167.1262 N.am    1  UNL1       -0.2794
      8 C         139.3198  139.8015  166.7952 C.2     1  UNL1        0.2495
      9 O         138.5205  139.1652  167.8935 O.2     1  UNL1       -0.2698
     10 H         141.0657  141.0244  166.4053 H       1  UNL1        0.1552
     11 N         142.9088  139.0953  168.1798 N.pl3   1  UNL1       -0.3560
     12 C         142.1472  140.0201  169.0824 C.ar    1  UNL1        0.0552
     13 C         142.5693  140.1892  170.5118 C.ar    1  UNL1        0.0153
     14 C         141.8078  141.1139  171.4144 C.ar    1  UNL1        0.0013
     15 C         140.6240  141.8697  170.8876 C.ar    1  UNL1        0.0014
     16 C         140.2018  141.7006  169.4583 C.ar    1  UNL1        0.0159
     17 C         140.9634  140.7758  168.5556 C.ar    1  UNL1        0.0636
     18 H         143.6857  138.5993  168.5255 H       1  UNL1        0.1424
     19 H         142.6317  138.9844  167.2416 H       1  UNL1        0.1424
     20 C         137.6309  139.1253  161.0776 C.3     1  UNL1        0.1165
     21 N         138.4889  139.6675  159.9730 N.pl3   1  UNL1       -0.2990
     22 H         138.0912  139.8715  159.0958 H       1  UNL1        0.1500
     23 C         139.9526  139.8988  160.2050 C.ar    1  UNL1        0.2171
     24 N         140.9586  138.9123  159.6902 N.ar    1  UNL1       -0.2123
     25 C         142.4224  139.1436  159.9222 C.ar    1  UNL1        0.1034
     26 C         142.8802  140.3614  160.6689 C.ar    1  UNL1        0.0400
     27 C         141.8742  141.3478  161.1836 C.ar    1  UNL1        0.0872
     28 N         140.4104  141.1165  160.9517 N.ar    1  UNL1       -0.2137
     29 C         142.3320  142.5655  161.9303 C.ar    1  UNL1        0.0370
     30 C         141.4634  143.1609  162.9985 C.ar    1  UNL1        0.0046
     31 C         141.9211  144.3786  163.7452 C.ar    1  UNL1        0.0207
     32 C         143.2476  145.0009  163.4238 C.ar    1  UNL1        0.0989
     33 N         144.1162  144.4055  162.3557 N.ar    1  UNL1       -0.2423
     34 C         143.6585  143.1878  161.6089 C.ar    1  UNL1        0.1003
@<TRIPOS>BOND
     1    11    12    1
     2    12    13   ar
     3    13    14   ar
     4    14    15   ar
     5    15    16   ar
     6    16    17   ar
     7    17     7    1
     8     7     8   am
     9     8     9    2
    10     8     1    1
    11     1     2   ar
    12     2     3   ar
    13     3     4   ar
    14     4    20    1
    15    20    21    1
    16    21    23    1
    17    23    24   ar
    18    24    25   ar
    19    25    26   ar
    20    26    27   ar
    21    27    29    1
    22    29    30   ar
    23    30    31   ar
    24    31    32   ar
    25    32    33   ar
    26    33    34   ar
    27    27    28   ar
    28     4     5   ar
    29     5     6   ar
    30    17    12   ar
    31     6     1   ar
    32    28    23   ar
    33    34    29   ar
    34    11    18    1
    35    11    19    1
    36     7    10    1
    37    21    22    1
@<TRIPOS>MOLECULE
*****
 34 37 0 0 0
SMALL
GASTEIGER

@<TRIPOS>ATOM
      1 C         142.7111  139.4835  165.2356 C.ar    1  UNL1        0.0537
      2 C         144.0207  139.9164  164.6460 C.ar    1  UNL1        0.0042
      3 C         144.4473  139.3978  163.3048 C.ar    1  UNL1       -0.0025
      4 C         143.5644  138.4462  162.5532 C.ar    1  UNL1       -0.0026
      5 C         142.2549  138.0133  163.1428 C.ar    1  UNL1       -0.0025
      6 C         141.8282  138.5319  164.4840 C.ar    1  UNL1        0.0042
      7 N         141.1561  140.9854  166.6766 N.am    1  UNL1       -0.2794
      8 C         142.2845  140.0022  166.5769 C.2     1  UNL1        0.2495
      9 O         142.9864  139.5376  167.8186 O.2     1  UNL1       -0.2698
     10 H         140.6955  141.2903  165.8617 H       1  UNL1        0.1552
     11 N         139.0566  139.5298  168.2493 N.pl3   1  UNL1       -0.3560
     12 C         139.6798  140.7763  168.8042 C.ar    1  UNL1        0.0552
     13 C         139.2532  141.2950  170.1455 C.ar    1  UNL1        0.0153
     14 C         139.8764  142.5415  170.7004 C.ar    1  UNL1        0.0013
     15 C         140.9261  143.2692  169.9140 C.ar    1  UNL1        0.0014
     16 C         141.3527  142.7505  168.5728 C.ar    1  UNL1        0.0159
     17 C         140.7295  141.5041  168.0179 C.ar    1  UNL1        0.0636
     18 H         138.3676  139.0521  168.7654 H       1  UNL1        0.1424
     19 H         139.3366  139.1893  167.3690 H       1  UNL1        0.1424
     20 C         143.9910  137.9275  161.2119 C.3     1  UNL1        0.1165
     21 N         143.6573  138.6981  159.9690 N.pl3   1  UNL1       -0.2990
     22 H         143.7174  138.2621  159.0884 H       1  UNL1        0.1500
     23 C         143.2320  140.1332  160.0678 C.ar    1  UNL1        0.2171
     24 N         144.0804  141.2105  159.4599 N.ar    1  UNL1       -0.2123
     25 C         143.6551  142.6455  159.5587 C.ar    1  UNL1        0.1034
     26 C         142.3812  143.0032  160.2654 C.ar    1  UNL1        0.0400
     27 C         141.5328  141.9259  160.8733 C.ar    1  UNL1        0.0872
     28 N         141.9582  140.4909  160.7745 N.ar    1  UNL1       -0.2137
     29 C         140.2590  142.2836  161.5801 C.ar    1  UNL1        0.0370
     30 C         140.1872  142.2156  163.0769 C.ar    1  UNL1        0.0046
     31 C         138.9134  142.5733  163.7836 C.ar    1  UNL1        0.0207
     32 C         137.7114  142.9991  162.9936 C.ar    1  UNL1        0.0989
     33 N         137.7832  143.0671  161.4969 N.ar    1  UNL1       -0.2423
     34 C         139.0571  142.7093  160.7901 C.ar    1  UNL1        0.1003
@<TRIPOS>BOND
     1    11    12    1
     2    12    13   ar
     3    13    14   ar
     4    14    15   ar
     5    15    16   ar
     6    16    17   ar
     7    17     7    1
     8     7     8   am
     9     8     9    2
    10     8     1    1
    11     1     2   ar
    12     2     3   ar
    13     3     4   ar
    14     4    20    1
    15    20    21    1
    16    21    23    1
    17    23    24   ar
    18    24    25   ar
    19    25    26   ar
    20    26    27   ar
    21    27    29    1
    22    29    30   ar
    23    30    31   ar
    24    31    32   ar
    25    32    33   ar
    26    33    34   ar
    27    27    28   ar
    28     4     5   ar
    29     5     6   ar
    30    17    12   ar
    31     6     1   ar
    32    28    23   ar
    33    34    29   ar
    34    11    18    1
    35    11    19    1
    36     7    10    1
    37    21    22    1
@<TRIPOS>MOLECULE
*****
 34 37 0 0 0
SMALL
GASTEIGER

@<TRIPOS>ATOM
      1 C         141.2348  137.8775  161.9211 C.ar    1  UNL1        0.0537
      2 C         141.8693  137.6904  163.2674 C.ar    1  UNL1        0.0042
      3 C         141.0113  137.5934  164.4939 C.ar    1  UNL1       -0.0025
      4 C         139.5188  137.6836  164.3741 C.ar    1  UNL1       -0.0026
      5 C         138.8844  137.8706  163.0278 C.ar    1  UNL1       -0.0025
      6 C         139.7424  137.9676  161.8013 C.ar    1  UNL1        0.0042
      7 N         141.4810  138.3561  159.3794 N.am    1  UNL1       -0.2794
      8 C         142.0930  137.9744  160.6946 C.2     1  UNL1        0.2495
      9 O         143.5630  137.6896  160.7833 O.2     1  UNL1       -0.2698
     10 H         140.5162  138.5430  159.3211 H       1  UNL1        0.1552
     11 N         142.8321  140.9457  158.6947 N.pl3   1  UNL1       -0.3560
     12 C         143.0146  139.7478  157.8105 C.ar    1  UNL1        0.0552
     13 C         143.8727  139.8447  156.5840 C.ar    1  UNL1        0.0153
     14 C         144.0552  138.6468  155.6999 C.ar    1  UNL1        0.0013
     15 C         143.3797  137.3521  156.0422 C.ar    1  UNL1        0.0014
     16 C         142.5217  137.2552  157.2686 C.ar    1  UNL1        0.0159
     17 C         142.3391  138.4531  158.1528 C.ar    1  UNL1        0.0636
     18 H         143.2755  141.7955  158.4700 H       1  UNL1        0.1424
     19 H         142.2689  140.8821  159.4997 H       1  UNL1        0.1424
     20 C         138.6607  137.5866  165.6006 C.3     1  UNL1        0.1165
     21 N         138.0123  138.8175  166.1615 N.pl3   1  UNL1       -0.2990
     22 H         137.0623  138.7994  166.4194 H       1  UNL1        0.1500
     23 C         138.8111  140.0759  166.3293 C.ar    1  UNL1        0.2171
     24 N         139.6503  140.2734  167.5568 N.ar    1  UNL1       -0.2123
     25 C         140.4491  141.5318  167.7246 C.ar    1  UNL1        0.1034
     26 C         140.4089  142.5927  166.6649 C.ar    1  UNL1        0.0400
     27 C         139.5697  142.3952  165.4374 C.ar    1  UNL1        0.0872
     28 N         138.7708  141.1367  165.2696 N.ar    1  UNL1       -0.2137
     29 C         139.5294  143.4560  164.3777 C.ar    1  UNL1        0.0370
     30 C         140.7598  144.2577  164.0718 C.ar    1  UNL1        0.0046
     31 C         140.7195  145.3185  163.0121 C.ar    1  UNL1        0.0207
     32 C         139.4489  145.5777  162.2583 C.ar    1  UNL1        0.0989
     33 N         138.2185  144.7761  162.5641 N.ar    1  UNL1       -0.2423
     34 C         138.2588  143.7152  163.6239 C.ar    1  UNL1        0.1003
@<TRIPOS>BOND
     1    11    12    1
     2    12    13   ar
     3    13    14   ar
     4    14    15   ar
     5    15    16   ar
     6    16    17   ar
     7    17     7    1
     8     7     8   am
     9     8     9    2
    10     8     1    1
    11     1     2   ar
    12     2     3   ar
    13     3     4   ar
    14     4    20    1
    15    20    21    1
    16    21    23    1
    17    23    24   ar
    18    24    25   ar
    19    25    26   ar
    20    26    27   ar
    21    27    29    1
    22    29    30   ar
    23    30    31   ar
    24    31    32   ar
    25    32    33   ar
    26    33    34   ar
    27    27    28   ar
    28     4     5   ar
    29     5     6   ar
    30    17    12   ar
    31     6     1   ar
    32    28    23   ar
    33    34    29   ar
    34    11    18    1
    35    11    19    1
    36     7    10    1
    37    21    22    1
@<TRIPOS>MOLECULE
*****
 34 37 0 0 0
SMALL
GASTEIGER

@<TRIPOS>ATOM
      1 C         142.9696  139.0290  165.2660 C.ar    1  UNL1        0.0537
      2 C         141.9551  138.2417  164.4909 C.ar    1  UNL1        0.0042
      3 C         142.1919  137.9341  163.0420 C.ar    1  UNL1       -0.0025
      4 C         143.4432  138.4139  162.3683 C.ar    1  UNL1       -0.0026
      5 C         144.4578  139.2012  163.1434 C.ar    1  UNL1       -0.0025
      6 C         144.2210  139.5087  164.5923 C.ar    1  UNL1        0.0042
      7 N         141.8082  140.4520  167.1035 N.am    1  UNL1       -0.2794
      8 C         142.7327  139.3366  166.7150 C.2     1  UNL1        0.2495
      9 O         143.4204  138.5287  167.7753 O.2     1  UNL1       -0.2698
     10 H         141.3569  140.9823  166.4075 H       1  UNL1        0.1552
     11 N         143.4511  142.5516  168.4794 N.pl3   1  UNL1       -0.3560
     12 C         142.3928  141.8093  169.2403 C.ar    1  UNL1        0.0552
     13 C         142.1559  142.1169  170.6892 C.ar    1  UNL1        0.0153
     14 C         141.0976  141.3747  171.4502 C.ar    1  UNL1        0.0013
     15 C         140.2761  140.3249  170.7623 C.ar    1  UNL1        0.0014
     16 C         140.5130  140.0174  169.3134 C.ar    1  UNL1        0.0159
     17 C         141.5714  140.7596  168.5524 C.ar    1  UNL1        0.0636
     18 H         143.9903  143.2405  168.9309 H       1  UNL1        0.1424
     19 H         143.6066  142.3497  167.5284 H       1  UNL1        0.1424
     20 C         143.6801  138.1063  160.9193 C.3     1  UNL1        0.1165
     21 N         143.0312  138.9454  159.8587 N.pl3   1  UNL1       -0.2990
     22 H         142.7218  138.5286  159.0222 H       1  UNL1        0.1500
     23 C         142.8539  140.4194  160.0727 C.ar    1  UNL1        0.2171
     24 N         143.9085  141.3775  159.6039 N.ar    1  UNL1       -0.2123
     25 C         143.7311  142.8515  159.8179 C.ar    1  UNL1        0.1034
     26 C         142.4991  143.3674  160.5006 C.ar    1  UNL1        0.0400
     27 C         141.4445  142.4093  160.9693 C.ar    1  UNL1        0.0872
     28 N         141.6219  140.9352  160.7553 N.ar    1  UNL1       -0.2137
     29 C         140.2125  142.9251  161.6520 C.ar    1  UNL1        0.0370
     30 C         139.3843  142.0059  162.5001 C.ar    1  UNL1        0.0046
     31 C         138.1524  142.5217  163.1827 C.ar    1  UNL1        0.0207
     32 C         137.7484  143.9568  163.0174 C.ar    1  UNL1        0.0989
     33 N         138.5765  144.8760  162.1693 N.ar    1  UNL1       -0.2423
     34 C         139.8086  144.3602  161.4866 C.ar    1  UNL1        0.1003
@<TRIPOS>BOND
     1    11    12    1
     2    12    13   ar
     3    13    14   ar
     4    14    15   ar
     5    15    16   ar
     6    16    17   ar
     7    17     7    1
     8     7     8   am
     9     8     9    2
    10     8     1    1
    11     1     2   ar
    12     2     3   ar
    13     3     4   ar
    14     4    20    1
    15    20    21    1
    16    21    23    1
    17    23    24   ar
    18    24    25   ar
    19    25    26   ar
    20    26    27   ar
    21    27    29    1
    22    29    30   ar
    23    30    31   ar
    24    31    32   ar
    25    32    33   ar
    26    33    34   ar
    27    27    28   ar
    28     4     5   ar
    29     5     6   ar
    30    17    12   ar
    31     6     1   ar
    32    28    23   ar
    33    34    29   ar
    34    11    18    1
    35    11    19    1
    36     7    10    1
    37    21    22    1
@<TRIPOS>MOLECULE
*****
 34 37 0 0 0
SMALL
GASTEIGER

@<TRIPOS>ATOM
      1 C         142.5044  139.0429  165.1851 C.ar    1  UNL1        0.0537
      2 C         143.4978  139.5970  164.2073 C.ar    1  UNL1        0.0042
      3 C         143.4769  139.1426  162.7780 C.ar    1  UNL1       -0.0025
      4 C         142.4626  138.1341  162.3264 C.ar    1  UNL1       -0.0026
      5 C         141.4692  137.5800  163.3042 C.ar    1  UNL1       -0.0025
      6 C         141.4901  138.0344  164.7335 C.ar    1  UNL1        0.0042
      7 N         141.7938  140.7438  167.0160 N.am    1  UNL1       -0.2794
      8 C         142.5253  139.4974  166.6145 C.2     1  UNL1        0.2495
      9 O         143.2778  138.7054  167.6423 O.2     1  UNL1       -0.2698
     10 H         141.3000  141.2637  166.3414 H       1  UNL1        0.1552
     11 N         139.6945  139.7767  168.9285 N.pl3   1  UNL1       -0.3560
     12 C         140.7651  140.7147  169.4016 C.ar    1  UNL1        0.0552
     13 C         140.7861  141.1692  170.8309 C.ar    1  UNL1        0.0153
     14 C         141.8568  142.1073  171.3040 C.ar    1  UNL1        0.0013
     15 C         142.9064  142.5908  170.3478 C.ar    1  UNL1        0.0014
     16 C         142.8854  142.1363  168.9185 C.ar    1  UNL1        0.0159
     17 C         141.8148  141.1983  168.4454 C.ar    1  UNL1        0.0636
     18 H         139.0056  139.4593  169.5561 H       1  UNL1        0.1424
     19 H         139.6807  139.4784  167.9903 H       1  UNL1        0.1424
     20 C         142.4416  137.6796  160.8970 C.3     1  UNL1        0.1165
     21 N         141.7186  138.4905  159.8628 N.pl3   1  UNL1       -0.2990
     22 H         142.0372  138.4970  158.9312 H       1  UNL1        0.1500
     23 C         140.5103  139.2916  160.2478 C.ar    1  UNL1        0.2171
     24 N         139.1796  138.6161  160.3988 N.ar    1  UNL1       -0.2123
     25 C         137.9713  139.4171  160.7838 C.ar    1  UNL1        0.1034
     26 C         138.0937  140.8937  161.0178 C.ar    1  UNL1        0.0400
     27 C         139.4244  141.5692  160.8667 C.ar    1  UNL1        0.0872
     28 N         140.6328  140.7681  160.4817 N.ar    1  UNL1       -0.2137
     29 C         139.5468  143.0458  161.1007 C.ar    1  UNL1        0.0370
     30 C         139.3395  143.6069  162.4763 C.ar    1  UNL1        0.0046
     31 C         139.4619  145.0835  162.7102 C.ar    1  UNL1        0.0207
     32 C         139.7917  145.9989  161.5687 C.ar    1  UNL1        0.0989
     33 N         139.9991  145.4378  160.1931 N.ar    1  UNL1       -0.2423
     34 C         139.8767  143.9612  159.9591 C.ar    1  UNL1        0.1003
@<TRIPOS>BOND
     1    11    12    1
     2    12    13   ar
     3    13    14   ar
     4    14    15   ar
     5    15    16   ar
     6    16    17   ar
     7    17     7    1
     8     7     8   am
     9     8     9    2
    10     8     1    1
    11     1     2   ar
    12     2     3   ar
    13     3     4   ar
    14     4    20    1
    15    20    21    1
    16    21    23    1
    17    23    24   ar
    18    24    25   ar
    19    25    26   ar
    20    26    27   ar
    21    27    29    1
    22    29    30   ar
    23    30    31   ar
    24    31    32   ar
    25    32    33   ar
    26    33    34   ar
    27    27    28   ar
    28     4     5   ar
    29     5     6   ar
    30    17    12   ar
    31     6     1   ar
    32    28    23   ar
    33    34    29   ar
    34    11    18    1
    35    11    19    1
    36     7    10    1
    37    21    22    1
@<TRIPOS>MOLECULE
*****
 34 37 0 0 0
SMALL
GASTEIGER

@<TRIPOS>ATOM
      1 C         138.8440  139.6667  165.2741 C.ar    1  UNL1        0.0537
      2 C         138.0904  140.7743  164.5992 C.ar    1  UNL1        0.0042
      3 C         137.6514  140.6222  163.1730 C.ar    1  UNL1       -0.0025
      4 C         137.9659  139.3626  162.4217 C.ar    1  UNL1       -0.0026
      5 C         138.7195  138.2551  163.0966 C.ar    1  UNL1       -0.0025
      6 C         139.1585  138.4071  164.5228 C.ar    1  UNL1        0.0042
      7 N         140.5027  140.6283  167.0274 N.am    1  UNL1       -0.2794
      8 C         139.2830  139.8188  166.7004 C.2     1  UNL1        0.2495
      9 O         138.5022  139.1614  167.7996 O.2     1  UNL1       -0.2698
     10 H         141.0151  141.0598  166.3060 H       1  UNL1        0.1552
     11 N         142.9017  139.1295  168.0265 N.pl3   1  UNL1       -0.3560
     12 C         142.1412  140.0310  168.9532 C.ar    1  UNL1        0.0552
     13 C         142.5801  140.1832  170.3794 C.ar    1  UNL1        0.0153
     14 C         141.8196  141.0847  171.3061 C.ar    1  UNL1        0.0013
     15 C         140.6201  141.8341  170.8066 C.ar    1  UNL1        0.0014
     16 C         140.1811  141.6819  169.3804 C.ar    1  UNL1        0.0159
     17 C         140.9417  140.7804  168.4537 C.ar    1  UNL1        0.0636
     18 H         143.6890  138.6376  168.3543 H       1  UNL1        0.1424
     19 H         142.6136  139.0297  167.0904 H       1  UNL1        0.1424
     20 C         137.5269  139.2105  160.9954 C.3     1  UNL1        0.1165
     21 N         138.4385  139.6317  159.8811 N.pl3   1  UNL1       -0.2990
     22 H         138.5007  139.0870  159.0635 H       1  UNL1        0.1500
     23 C         139.2553  140.8829  160.0127 C.ar    1  UNL1        0.2171
     24 N         138.7324  142.1803  159.4709 N.ar    1  UNL1       -0.2123
     25 C         139.5492  143.4315  159.6025 C.ar    1  UNL1        0.1034
     26 C         140.8889  143.3854  160.2758 C.ar    1  UNL1        0.0400
     27 C         141.4117  142.0880  160.8175 C.ar    1  UNL1        0.0872
     28 N         140.5948  140.8368  160.6859 N.ar    1  UNL1       -0.2137
     29 C         142.7513  142.0418  161.4908 C.ar    1  UNL1        0.0370
     30 C         143.3371  143.2899  162.0818 C.ar    1  UNL1        0.0046
     31 C         144.6767  143.2438  162.7550 C.ar    1  UNL1        0.0207
     32 C         145.4305  141.9496  162.8374 C.ar    1  UNL1        0.0989
     33 N         144.8448  140.7015  162.2464 N.ar    1  UNL1       -0.2423
     34 C         143.5051  140.7476  161.5731 C.ar    1  UNL1        0.1003
@<TRIPOS>BOND
     1    11    12    1
     2    12    13   ar
     3    13    14   ar
     4    14    15   ar
     5    15    16   ar
     6    16    17   ar
     7    17     7    1
     8     7     8   am
     9     8     9    2
    10     8     1    1
    11     1     2   ar
    12     2     3   ar
    13     3     4   ar
    14     4    20    1
    15    20    21    1
    16    21    23    1
    17    23    24   ar
    18    24    25   ar
    19    25    26   ar
    20    26    27   ar
    21    27    29    1
    22    29    30   ar
    23    30    31   ar
    24    31    32   ar
    25    32    33   ar
    26    33    34   ar
    27    27    28   ar
    28     4     5   ar
    29     5     6   ar
    30    17    12   ar
    31     6     1   ar
    32    28    23   ar
    33    34    29   ar
    34    11    18    1
    35    11    19    1
    36     7    10    1
    37    21    22    1
@<TRIPOS>MOLECULE
*****
 34 37 0 0 0
SMALL
GASTEIGER

@<TRIPOS>ATOM
      1 C         143.0453  138.6476  157.7124 C.ar    1  UNL1        0.0537
      2 C         143.5551  139.7650  156.8513 C.ar    1  UNL1        0.0042
      3 C         143.9877  141.0573  157.4780 C.ar    1  UNL1       -0.0025
      4 C         143.9106  141.2322  158.9657 C.ar    1  UNL1       -0.0026
      5 C         143.4008  140.1147  159.8268 C.ar    1  UNL1       -0.0025
      6 C         142.9681  138.8224  159.2001 C.ar    1  UNL1        0.0042
      7 N         143.6400  136.3607  156.6322 N.am    1  UNL1       -0.2794
      8 C         142.6127  137.3552  157.0857 C.2     1  UNL1        0.2495
      9 O         141.1528  137.0574  156.9125 O.2     1  UNL1       -0.2698
     10 H         144.5981  136.5562  156.7459 H       1  UNL1        0.1552
     11 N         143.5291  133.8570  158.2812 N.pl3   1  UNL1       -0.3560
     12 C         143.1519  133.8165  156.8300 C.ar    1  UNL1        0.0552
     13 C         142.7193  132.5243  156.2032 C.ar    1  UNL1        0.0153
     14 C         142.3421  132.4838  154.7520 C.ar    1  UNL1        0.0013
     15 C         142.3975  133.7356  153.9275 C.ar    1  UNL1        0.0014
     16 C         142.8302  135.0279  154.5542 C.ar    1  UNL1        0.0159
     17 C         143.2073  135.0683  156.0055 C.ar    1  UNL1        0.0636
     18 H         143.4927  133.0354  158.8223 H       1  UNL1        0.1424
     19 H         143.8130  134.7052  158.6925 H       1  UNL1        0.1424
     20 C         144.3432  142.5245  159.5925 C.3     1  UNL1        0.1165
     21 N         143.3592  143.3472  160.3703 N.pl3   1  UNL1       -0.2990
     22 H         142.6204  143.8014  159.9045 H       1  UNL1        0.1500
     23 C         143.5010  143.4778  161.8578 C.ar    1  UNL1        0.2171
     24 N         143.7648  144.8210  162.4711 N.ar    1  UNL1       -0.2123
     25 C         143.9065  144.9516  163.9586 C.ar    1  UNL1        0.1034
     26 C         143.7845  143.7389  164.8330 C.ar    1  UNL1        0.0400
     27 C         143.5207  142.3956  164.2198 C.ar    1  UNL1        0.0872
     28 N         143.3789  142.2651  162.7321 N.ar    1  UNL1       -0.2137
     29 C         143.3986  141.1830  165.0941 C.ar    1  UNL1        0.0370
     30 C         144.0146  139.8841  164.6653 C.ar    1  UNL1        0.0046
     31 C         143.8926  138.6715  165.5396 C.ar    1  UNL1        0.0207
     32 C         143.1546  138.7575  166.8427 C.ar    1  UNL1        0.0989
     33 N         142.5386  140.0562  167.2714 N.ar    1  UNL1       -0.2423
     34 C         142.6607  141.2690  166.3971 C.ar    1  UNL1        0.1003
@<TRIPOS>BOND
     1    11    12    1
     2    12    13   ar
     3    13    14   ar
     4    14    15   ar
     5    15    16   ar
     6    16    17   ar
     7    17     7    1
     8     7     8   am
     9     8     9    2
    10     8     1    1
    11     1     2   ar
    12     2     3   ar
    13     3     4   ar
    14     4    20    1
    15    20    21    1
    16    21    23    1
    17    23    24   ar
    18    24    25   ar
    19    25    26   ar
    20    26    27   ar
    21    27    29    1
    22    29    30   ar
    23    30    31   ar
    24    31    32   ar
    25    32    33   ar
    26    33    34   ar
    27    27    28   ar
    28     4     5   ar
    29     5     6   ar
    30    17    12   ar
    31     6     1   ar
    32    28    23   ar
    33    34    29   ar
    34    11    18    1
    35    11    19    1
    36     7    10    1
    37    21    22    1
