@<TRIPOS>MOLECULE
*****
 36 39 0 0 0
SMALL
GASTEIGER

@<TRIPOS>ATOM
      1 C         142.6141  142.9909  158.9715 C.ar    1  UNL1        0.1331
      2 C         141.1817  143.1164  158.5441 C.ar    1  UNL1        0.0346
      3 C         140.2073  143.8708  159.3993 C.ar    1  UNL1        0.0102
      4 C         140.6652  144.4995  160.6819 C.ar    1  UNL1        0.0849
      5 C         142.0975  144.3740  161.1092 C.ar    1  UNL1        0.1379
      6 N         143.0719  143.6196  160.2540 N.ar    1  UNL1       -0.2158
      7 C         145.5989  141.6143  156.9072 C.3     1  UNL1        0.0933
      8 C         144.5772  140.5370  156.6932 C.3     1  UNL1        0.0428
      9 C         143.3347  140.9216  157.4404 C.3     1  UNL1        0.0940
     10 N         143.5886  142.2365  158.1162 N.pl3   1  UNL1       -0.2915
     11 C         144.9879  142.6645  157.7867 C.3     1  UNL1        0.1117
     12 C         147.2113  142.0591  154.9192 C.2     1  UNL1        0.2460
     13 O         146.0459  142.4583  154.0634 O.2     1  UNL1       -0.2701
     14 N         146.9878  141.6371  156.3411 N.am    1  UNL1       -0.3007
     15 H         147.7527  141.3751  156.9029 H       1  UNL1        0.1497
     16 C         149.7563  141.6080  155.1831 C.2     1  UNL1        0.0048
     17 C         148.6003  142.0820  154.3531 C.2     1  UNL1        0.0577
     18 C         139.6907  145.2539  161.5371 C.2     1  UNL1        0.2455
     19 N         138.4487  144.5762  162.0351 N.am    1  UNL1       -0.3252
     20 O         139.9583  146.6860  161.8943 O.2     1  UNL1       -0.2703
     21 H         138.2731  143.6363  161.8007 H       1  UNL1        0.1453
     22 H         137.8091  145.0713  162.5964 H       1  UNL1        0.1453
     23 N         142.5554  145.0028  162.3918 N.pl3   1  UNL1       -0.2978
     24 H         142.8144  145.9524  162.4095 H       1  UNL1        0.1536
     25 C         142.6187  144.1846  163.6474 C.ar    1  UNL1        0.0494
     26 C         143.9320  143.9768  164.3418 C.ar    1  UNL1        0.0159
     27 C         143.9952  143.1587  165.5975 C.ar    1  UNL1        0.0158
     28 C         142.7452  142.5484  166.1588 C.ar    1  UNL1        0.0479
     29 C         141.4320  142.7562  165.4644 C.ar    1  UNL1        0.0158
     30 C         141.3687  143.5743  164.2088 C.ar    1  UNL1        0.0159
     31 N         142.8085  141.7302  167.4145 N.pl3   1  UNL1       -0.3075
     32 C         143.2802  142.3552  168.6938 C.3     1  UNL1        0.0908
     33 C         143.3435  141.5372  169.9495 C.3     1  UNL1        0.0215
     34 C         142.9350  140.0941  169.9258 C.3     1  UNL1        0.0035
     35 C         142.4633  139.4691  168.6464 C.3     1  UNL1        0.0215
     36 C         142.4000  140.2871  167.3907 C.3     1  UNL1        0.0908
@<TRIPOS>BOND
     1    16    17    2
     2    17    12    1
     3    12    13    2
     4    12    14   am
     5     7    14    1
     6     7     8    1
     7     8     9    1
     8     9    10    1
     9    10     1    1
    10     1     2   ar
    11     2     3   ar
    12     3     4   ar
    13     4    18    1
    14    18    19   am
    15    18    20    2
    16     4     5   ar
    17     5    23    1
    18    23    25    1
    19    25    26   ar
    20    26    27   ar
    21    27    28   ar
    22    28    31    1
    23    31    32    1
    24    32    33    1
    25    33    34    1
    26    34    35    1
    27    35    36    1
    28    28    29   ar
    29    29    30   ar
    30     5     6   ar
    31    10    11    1
    32    11     7    1
    33     6     1   ar
    34    30    25   ar
    35    36    31    1
    36    14    15    1
    37    19    21    1
    38    19    22    1
    39    23    24    1
@<TRIPOS>MOLECULE
*****
 36 39 0 0 0
SMALL
GASTEIGER

@<TRIPOS>ATOM
      1 C         142.2568  143.3944  159.1262 C.ar    1  UNL1        0.1331
      2 C         142.8491  142.0631  158.7699 C.ar    1  UNL1        0.0346
      3 C         143.7181  141.3408  159.7562 C.ar    1  UNL1        0.0102
      4 C         143.9948  141.9496  161.0989 C.ar    1  UNL1        0.0849
      5 C         143.4026  143.2809  161.4552 C.ar    1  UNL1        0.1379
      6 N         142.5335  144.0032  160.4688 N.ar    1  UNL1       -0.2158
      7 C         140.2349  145.8828  156.9387 C.3     1  UNL1        0.0933
      8 C         139.8659  144.5741  156.3052 C.3     1  UNL1        0.0428
      9 C         140.5784  143.4827  157.0475 C.3     1  UNL1        0.0940
     10 N         141.3877  144.1168  158.1398 N.pl3   1  UNL1       -0.2915
     11 C         141.1754  145.6002  158.0725 C.3     1  UNL1        0.1117
     12 C         139.8896  147.6687  155.0836 C.2     1  UNL1        0.2460
     13 O         140.5168  146.7473  154.0798 O.2     1  UNL1       -0.2701
     14 N         139.7486  147.2365  156.5130 N.am    1  UNL1       -0.3007
     15 H         139.3370  147.8412  157.1718 H       1  UNL1        0.1497
     16 C         138.6868  149.9040  155.6373 C.2     1  UNL1        0.0048
     17 C         139.4034  149.0224  154.6579 C.2     1  UNL1        0.0577
     18 C         144.8639  141.2272  162.0852 C.2     1  UNL1        0.2455
     19 N         144.5882  139.7905  162.4165 N.am    1  UNL1       -0.3252
     20 O         146.0087  141.9415  162.7403 O.2     1  UNL1       -0.2703
     21 H         143.8368  139.3216  161.9865 H       1  UNL1        0.1453
     22 H         145.1586  139.3163  163.0639 H       1  UNL1        0.1453
     23 N         143.6793  143.8897  162.7978 N.pl3   1  UNL1       -0.2978
     24 H         144.3459  144.6090  162.8841 H       1  UNL1        0.1536
     25 C         142.9404  143.4027  164.0089 C.ar    1  UNL1        0.0494
     26 C         141.4405  143.3986  164.0210 C.ar    1  UNL1        0.0159
     27 C         140.7016  142.9115  165.2322 C.ar    1  UNL1        0.0158
     28 C         141.4626  142.4285  166.4311 C.ar    1  UNL1        0.0479
     29 C         142.9626  142.4326  166.4190 C.ar    1  UNL1        0.0158
     30 C         143.7015  142.9197  165.2079 C.ar    1  UNL1        0.0159
     31 N         140.7237  141.9414  167.6423 N.pl3   1  UNL1       -0.3075
     32 C         140.6784  142.7840  168.8824 C.3     1  UNL1        0.0908
     33 C         139.9396  142.2970  170.0935 C.3     1  UNL1        0.0215
     34 C         139.2460  140.9673  170.0645 C.3     1  UNL1        0.0035
     35 C         139.2913  140.1247  168.8244 C.3     1  UNL1        0.0215
     36 C         140.0301  140.6117  167.6133 C.3     1  UNL1        0.0908
@<TRIPOS>BOND
     1    16    17    2
     2    17    12    1
     3    12    13    2
     4    12    14   am
     5     7    14    1
     6     7     8    1
     7     8     9    1
     8     9    10    1
     9    10     1    1
    10     1     2   ar
    11     2     3   ar
    12     3     4   ar
    13     4    18    1
    14    18    19   am
    15    18    20    2
    16     4     5   ar
    17     5    23    1
    18    23    25    1
    19    25    26   ar
    20    26    27   ar
    21    27    28   ar
    22    28    31    1
    23    31    32    1
    24    32    33    1
    25    33    34    1
    26    34    35    1
    27    35    36    1
    28    28    29   ar
    29    29    30   ar
    30     5     6   ar
    31    10    11    1
    32    11     7    1
    33     6     1   ar
    34    30    25   ar
    35    36    31    1
    36    14    15    1
    37    19    21    1
    38    19    22    1
    39    23    24    1
@<TRIPOS>MOLECULE
*****
 36 39 0 0 0
SMALL
GASTEIGER

@<TRIPOS>ATOM
      1 C         142.7490  139.5956  159.3219 C.ar    1  UNL1        0.1331
      2 C         142.9765  141.0274  158.9370 C.ar    1  UNL1        0.0346
      3 C         143.7468  141.9358  159.8489 C.ar    1  UNL1        0.0102
      4 C         144.2895  141.4124  161.1456 C.ar    1  UNL1        0.0849
      5 C         144.0620  139.9806  161.5305 C.ar    1  UNL1        0.1379
      6 N         143.2918  139.0722  160.6186 N.ar    1  UNL1       -0.2158
      7 C         141.4311  136.9476  156.8085 C.3     1  UNL1        0.0933
      8 C         140.1559  137.6308  157.2051 C.3     1  UNL1        0.0428
      9 C         140.4944  138.7058  158.1948 C.3     1  UNL1        0.0940
     10 N         141.9788  138.6871  158.4100 N.pl3   1  UNL1       -0.2915
     11 C         142.5577  137.6005  157.5532 C.3     1  UNL1        0.1117
     12 C         142.4021  134.6205  156.1826 C.2     1  UNL1        0.2460
     13 O         143.1204  134.5664  157.4984 O.2     1  UNL1       -0.2701
     14 N         141.5574  135.8111  155.8377 N.am    1  UNL1       -0.3007
     15 H         141.0860  135.8466  154.9742 H       1  UNL1        0.1497
     16 C         141.3950  132.5173  155.0372 C.2     1  UNL1        0.0048
     17 C         142.5285  133.4840  155.2118 C.2     1  UNL1        0.0577
     18 C         145.0598  142.3208  162.0575 C.2     1  UNL1        0.2455
     19 N         144.7197  143.7802  162.1245 N.am    1  UNL1       -0.3252
     20 O         146.1701  141.7698  162.9023 O.2     1  UNL1       -0.2703
     21 H         143.9910  144.1418  161.5701 H       1  UNL1        0.1453
     22 H         145.2252  144.3764  162.7230 H       1  UNL1        0.1453
     23 N         144.6047  139.4572  162.8272 N.pl3   1  UNL1       -0.2978
     24 H         145.4953  139.0383  162.8548 H       1  UNL1        0.1536
     25 C         143.7907  139.5720  164.0818 C.ar    1  UNL1        0.0494
     26 C         142.6591  140.5538  164.1544 C.ar    1  UNL1        0.0159
     27 C         141.8450  140.6686  165.4091 C.ar    1  UNL1        0.0158
     28 C         142.1627  139.8016  166.5911 C.ar    1  UNL1        0.0479
     29 C         143.2943  138.8197  166.5185 C.ar    1  UNL1        0.0158
     30 C         144.1083  138.7049  165.2639 C.ar    1  UNL1        0.0159
     31 N         141.3486  139.9163  167.8459 N.pl3   1  UNL1       -0.3075
     32 C         142.0267  139.9015  169.1838 C.3     1  UNL1        0.0908
     33 C         141.2127  140.0163  170.4384 C.3     1  UNL1        0.0215
     34 C         139.7207  140.1459  170.3552 C.3     1  UNL1        0.0035
     35 C         139.0426  140.1607  169.0173 C.3     1  UNL1        0.0215
     36 C         139.8566  140.0459  167.7626 C.3     1  UNL1        0.0908
@<TRIPOS>BOND
     1    16    17    2
     2    17    12    1
     3    12    13    2
     4    12    14   am
     5     7    14    1
     6     7     8    1
     7     8     9    1
     8     9    10    1
     9    10     1    1
    10     1     2   ar
    11     2     3   ar
    12     3     4   ar
    13     4    18    1
    14    18    19   am
    15    18    20    2
    16     4     5   ar
    17     5    23    1
    18    23    25    1
    19    25    26   ar
    20    26    27   ar
    21    27    28   ar
    22    28    31    1
    23    31    32    1
    24    32    33    1
    25    33    34    1
    26    34    35    1
    27    35    36    1
    28    28    29   ar
    29    29    30   ar
    30     5     6   ar
    31    10    11    1
    32    11     7    1
    33     6     1   ar
    34    30    25   ar
    35    36    31    1
    36    14    15    1
    37    19    21    1
    38    19    22    1
    39    23    24    1
@<TRIPOS>MOLECULE
*****
 36 39 0 0 0
SMALL
GASTEIGER

@<TRIPOS>ATOM
      1 C         142.7440  138.4954  158.1268 C.ar    1  UNL1        0.1331
      2 C         142.4365  139.9277  157.8047 C.ar    1  UNL1        0.0346
      3 C         142.8247  141.0124  158.7652 C.ar    1  UNL1        0.0102
      4 C         143.5205  140.6648  160.0478 C.ar    1  UNL1        0.0849
      5 C         143.8280  139.2325  160.3699 C.ar    1  UNL1        0.1379
      6 N         143.4397  138.1478  159.4094 N.ar    1  UNL1       -0.2158
      7 C         142.4554  135.4661  155.7173 C.3     1  UNL1        0.0933
      8 C         141.0612  136.0167  155.6590 C.3     1  UNL1        0.0428
      9 C         140.9997  137.2184  156.5545 C.3     1  UNL1        0.0940
     10 N         142.3558  137.4106  157.1662 N.pl3   1  UNL1       -0.2915
     11 C         143.2554  136.3276  156.6488 C.3     1  UNL1        0.1117
     12 C         143.0457  132.9365  155.6660 C.2     1  UNL1        0.2460
     13 O         142.6255  132.8093  157.1003 O.2     1  UNL1       -0.2701
     14 N         142.9607  134.2648  154.9745 N.am    1  UNL1       -0.3007
     15 H         143.2365  134.3483  154.0332 H       1  UNL1        0.1497
     16 C         144.6091  130.8656  155.5349 C.2     1  UNL1        0.0048
     17 C         143.5511  131.7352  154.9232 C.2     1  UNL1        0.0577
     18 C         143.9087  141.7496  161.0084 C.2     1  UNL1        0.2455
     19 N         142.9056  142.7899  161.4102 N.am    1  UNL1       -0.3252
     20 O         145.3001  141.7941  161.5670 O.2     1  UNL1       -0.2703
     21 H         141.9924  142.7607  161.0436 H       1  UNL1        0.1453
     22 H         143.1604  143.5018  162.0406 H       1  UNL1        0.1453
     23 N         144.5237  138.8848  161.6525 N.pl3   1  UNL1       -0.2978
     24 H         145.4450  138.5382  161.6345 H       1  UNL1        0.1536
     25 C         143.8158  139.0653  162.9626 C.ar    1  UNL1        0.0494
     26 C         142.3216  138.9511  163.0296 C.ar    1  UNL1        0.0159
     27 C         141.6137  139.1316  164.3397 C.ar    1  UNL1        0.0158
     28 C         142.3999  139.4263  165.5827 C.ar    1  UNL1        0.0479
     29 C         143.8940  139.5404  165.5156 C.ar    1  UNL1        0.0158
     30 C         144.6020  139.3600  164.2056 C.ar    1  UNL1        0.0159
     31 N         141.6920  139.6067  166.8928 N.pl3   1  UNL1       -0.3075
     32 C         142.4656  139.5537  168.1768 C.3     1  UNL1        0.0908
     33 C         141.7577  139.7342  169.4869 C.3     1  UNL1        0.0215
     34 C         140.2763  139.9677  169.5130 C.3     1  UNL1        0.0035
     35 C         139.5027  140.0207  168.2289 C.3     1  UNL1        0.0215
     36 C         140.2105  139.8403  166.9189 C.3     1  UNL1        0.0908
@<TRIPOS>BOND
     1    16    17    2
     2    17    12    1
     3    12    13    2
     4    12    14   am
     5     7    14    1
     6     7     8    1
     7     8     9    1
     8     9    10    1
     9    10     1    1
    10     1     2   ar
    11     2     3   ar
    12     3     4   ar
    13     4    18    1
    14    18    19   am
    15    18    20    2
    16     4     5   ar
    17     5    23    1
    18    23    25    1
    19    25    26   ar
    20    26    27   ar
    21    27    28   ar
    22    28    31    1
    23    31    32    1
    24    32    33    1
    25    33    34    1
    26    34    35    1
    27    35    36    1
    28    28    29   ar
    29    29    30   ar
    30     5     6   ar
    31    10    11    1
    32    11     7    1
    33     6     1   ar
    34    30    25   ar
    35    36    31    1
    36    14    15    1
    37    19    21    1
    38    19    22    1
    39    23    24    1
@<TRIPOS>MOLECULE
*****
 36 39 0 0 0
SMALL
GASTEIGER

@<TRIPOS>ATOM
      1 C         142.4105  143.4118  159.4043 C.ar    1  UNL1        0.1331
      2 C         142.9648  142.0700  159.0272 C.ar    1  UNL1        0.0346
      3 C         143.8149  141.3091  160.0010 C.ar    1  UNL1        0.0102
      4 C         144.1107  141.8900  161.3519 C.ar    1  UNL1        0.0849
      5 C         143.5565  143.2318  161.7291 C.ar    1  UNL1        0.1379
      6 N         142.7064  143.9927  160.7553 N.ar    1  UNL1       -0.2158
      7 C         139.9799  144.6980  156.6651 C.3     1  UNL1        0.0933
      8 C         140.5246  145.9897  157.1990 C.3     1  UNL1        0.0428
      9 C         141.5013  145.6651  158.2901 C.3     1  UNL1        0.0940
     10 N         141.5604  144.1728  158.4305 N.pl3   1  UNL1       -0.2915
     11 C         140.6201  143.5752  157.4262 C.3     1  UNL1        0.1117
     12 C         137.7491  143.7112  155.7710 C.2     1  UNL1        0.2460
     13 O         137.5339  143.0115  157.0802 O.2     1  UNL1       -0.2701
     14 N         138.9721  144.5545  155.5634 N.am    1  UNL1       -0.3007
     15 H         139.1133  145.0137  154.7041 H       1  UNL1        0.1497
     16 C         135.9769  142.2863  154.5143 C.2     1  UNL1        0.0048
     17 C         136.7412  143.5676  154.6693 C.2     1  UNL1        0.0577
     18 C         144.9609  141.1290  162.3257 C.2     1  UNL1        0.2455
     19 N         144.6680  139.6853  162.6085 N.am    1  UNL1       -0.3252
     20 O         146.1038  141.8118  163.0167 O.2     1  UNL1       -0.2703
     21 H         143.9178  139.2372  162.1550 H       1  UNL1        0.1453
     22 H         145.2259  139.1859  163.2477 H       1  UNL1        0.1453
     23 N         143.8523  143.8127  163.0800 N.pl3   1  UNL1       -0.2978
     24 H         144.5596  144.4902  163.1804 H       1  UNL1        0.1536
     25 C         143.0706  143.3615  164.2780 C.ar    1  UNL1        0.0494
     26 C         143.7851  142.8044  165.4735 C.ar    1  UNL1        0.0159
     27 C         143.0033  142.3531  166.6715 C.ar    1  UNL1        0.0158
     28 C         141.5070  142.4590  166.6740 C.ar    1  UNL1        0.0479
     29 C         140.7925  143.0161  165.4785 C.ar    1  UNL1        0.0158
     30 C         141.5743  143.4673  164.2806 C.ar    1  UNL1        0.0159
     31 N         140.7252  142.0077  167.8721 N.pl3   1  UNL1       -0.3075
     32 C         140.5877  142.9111  169.0616 C.3     1  UNL1        0.0908
     33 C         139.8060  142.4599  170.2596 C.3     1  UNL1        0.0215
     34 C         139.1617  141.1053  170.2680 C.3     1  UNL1        0.0035
     35 C         139.2992  140.2020  169.0785 C.3     1  UNL1        0.0215
     36 C         140.0810  140.6532  167.8805 C.3     1  UNL1        0.0908
@<TRIPOS>BOND
     1    16    17    2
     2    17    12    1
     3    12    13    2
     4    12    14   am
     5     7    14    1
     6     7     8    1
     7     8     9    1
     8     9    10    1
     9    10     1    1
    10     1     2   ar
    11     2     3   ar
    12     3     4   ar
    13     4    18    1
    14    18    19   am
    15    18    20    2
    16     4     5   ar
    17     5    23    1
    18    23    25    1
    19    25    26   ar
    20    26    27   ar
    21    27    28   ar
    22    28    31    1
    23    31    32    1
    24    32    33    1
    25    33    34    1
    26    34    35    1
    27    35    36    1
    28    28    29   ar
    29    29    30   ar
    30     5     6   ar
    31    10    11    1
    32    11     7    1
    33     6     1   ar
    34    30    25   ar
    35    36    31    1
    36    14    15    1
    37    19    21    1
    38    19    22    1
    39    23    24    1
@<TRIPOS>MOLECULE
*****
 36 39 0 0 0
SMALL
GASTEIGER

@<TRIPOS>ATOM
      1 C         141.0699  141.1823  159.0622 C.ar    1  UNL1        0.1331
      2 C         140.2874  142.4245  158.7545 C.ar    1  UNL1        0.0346
      3 C         139.2293  142.8992  159.7057 C.ar    1  UNL1        0.0102
      4 C         138.9536  142.1318  160.9647 C.ar    1  UNL1        0.0849
      5 C         139.7361  140.8896  161.2725 C.ar    1  UNL1        0.1379
      6 N         140.7942  140.4149  160.3212 N.ar    1  UNL1       -0.2158
      7 C         144.2680  140.3863  157.0118 C.3     1  UNL1        0.0933
      8 C         143.2447  139.5673  156.2823 C.3     1  UNL1        0.0428
      9 C         141.9222  139.7658  156.9617 C.3     1  UNL1        0.0940
     10 N         142.1281  140.7075  158.1109 N.pl3   1  UNL1       -0.2915
     11 C         143.5779  141.0910  158.1419 C.3     1  UNL1        0.1117
     12 C         146.2345  141.6520  155.8800 C.2     1  UNL1        0.2460
     13 O         145.2858  142.7232  155.4298 O.2     1  UNL1       -0.2701
     14 N         145.7256  140.4836  156.6710 N.am    1  UNL1       -0.3007
     15 H         146.3482  139.7805  156.9665 H       1  UNL1        0.1497
     16 C         148.1173  141.9532  154.1153 C.2     1  UNL1        0.0048
     17 C         147.6920  141.7493  155.5392 C.2     1  UNL1        0.0577
     18 C         137.8954  142.6066  161.9160 C.2     1  UNL1        0.2455
     19 N         137.7523  144.0708  162.2086 N.am    1  UNL1       -0.3252
     20 O         136.9804  141.6172  162.5746 O.2     1  UNL1       -0.2703
     21 H         138.3529  144.7202  161.7763 H       1  UNL1        0.1453
     22 H         137.0578  144.3824  162.8330 H       1  UNL1        0.1453
     23 N         139.4604  140.1222  162.5315 N.pl3   1  UNL1       -0.2978
     24 H         138.9364  139.2896  162.4957 H       1  UNL1        0.1536
     25 C         139.9831  140.6235  163.8450 C.ar    1  UNL1        0.0494
     26 C         139.2996  140.2339  165.1222 C.ar    1  UNL1        0.0159
     27 C         139.8224  140.7352  166.4358 C.ar    1  UNL1        0.0158
     28 C         141.0286  141.6261  166.4722 C.ar    1  UNL1        0.0479
     29 C         141.7121  142.0157  165.1951 C.ar    1  UNL1        0.0158
     30 C         141.1894  141.5144  163.8815 C.ar    1  UNL1        0.0159
     31 N         141.5514  142.1274  167.7858 N.pl3   1  UNL1       -0.3075
     32 C         142.9644  141.8315  168.1928 C.3     1  UNL1        0.0908
     33 C         143.4872  142.3327  169.5063 C.3     1  UNL1        0.0215
     34 C         142.5969  143.1299  170.4128 C.3     1  UNL1        0.0035
     35 C         141.1839  143.4258  170.0058 C.3     1  UNL1        0.0215
     36 C         140.6611  142.9246  168.6923 C.3     1  UNL1        0.0908
@<TRIPOS>BOND
     1    16    17    2
     2    17    12    1
     3    12    13    2
     4    12    14   am
     5     7    14    1
     6     7     8    1
     7     8     9    1
     8     9    10    1
     9    10     1    1
    10     1     2   ar
    11     2     3   ar
    12     3     4   ar
    13     4    18    1
    14    18    19   am
    15    18    20    2
    16     4     5   ar
    17     5    23    1
    18    23    25    1
    19    25    26   ar
    20    26    27   ar
    21    27    28   ar
    22    28    31    1
    23    31    32    1
    24    32    33    1
    25    33    34    1
    26    34    35    1
    27    35    36    1
    28    28    29   ar
    29    29    30   ar
    30     5     6   ar
    31    10    11    1
    32    11     7    1
    33     6     1   ar
    34    30    25   ar
    35    36    31    1
    36    14    15    1
    37    19    21    1
    38    19    22    1
    39    23    24    1
@<TRIPOS>MOLECULE
*****
 36 39 0 0 0
SMALL
GASTEIGER

@<TRIPOS>ATOM
      1 C         140.4699  141.6385  159.5872 C.ar    1  UNL1        0.1331
      2 C         141.1827  142.8312  159.0219 C.ar    1  UNL1        0.0346
      3 C         141.0719  144.1632  159.7027 C.ar    1  UNL1        0.0102
      4 C         140.2484  144.3025  160.9486 C.ar    1  UNL1        0.0849
      5 C         139.5357  143.1099  161.5139 C.ar    1  UNL1        0.1379
      6 N         139.6465  141.7779  160.8331 N.ar    1  UNL1       -0.2158
      7 C         141.4909  138.2554  157.9817 C.3     1  UNL1        0.0933
      8 C         140.0111  138.2579  157.7361 C.3     1  UNL1        0.0428
      9 C         139.4486  139.5255  158.3077 C.3     1  UNL1        0.0940
     10 N         140.5807  140.3064  158.9064 N.pl3   1  UNL1       -0.2915
     11 C         141.8429  139.5215  158.7049 C.3     1  UNL1        0.1117
     12 C         142.9494  137.1096  156.1623 C.2     1  UNL1        0.2460
     13 O         142.4891  138.1220  155.1558 O.2     1  UNL1       -0.2701
     14 N         142.4503  137.1763  157.5753 N.am    1  UNL1       -0.3007
     15 H         142.7524  136.5118  158.2359 H       1  UNL1        0.1497
     16 C         143.8374  134.6800  156.4050 C.2     1  UNL1        0.0048
     17 C         143.9087  136.0304  155.7559 C.2     1  UNL1        0.0577
     18 C         140.1377  145.6346  161.6294 C.2     1  UNL1        0.2455
     19 N         141.0617  145.9783  162.7599 N.am    1  UNL1       -0.3252
     20 O         139.1029  146.6230  161.1795 O.2     1  UNL1       -0.2703
     21 H         141.7408  145.3296  163.0551 H       1  UNL1        0.1453
     22 H         140.9890  146.8526  163.2066 H       1  UNL1        0.1453
     23 N         138.7122  143.2492  162.7598 N.pl3   1  UNL1       -0.2978
     24 H         137.8689  143.7567  162.7383 H       1  UNL1        0.1536
     25 C         139.1736  142.6154  164.0386 C.ar    1  UNL1        0.0494
     26 C         138.7002  141.2407  164.4078 C.ar    1  UNL1        0.0159
     27 C         139.1617  140.6069  165.6866 C.ar    1  UNL1        0.0158
     28 C         140.0965  141.3476  166.5962 C.ar    1  UNL1        0.0479
     29 C         140.5699  142.7222  166.2270 C.ar    1  UNL1        0.0158
     30 C         140.1085  143.3561  164.9483 C.ar    1  UNL1        0.0159
     31 N         140.5580  140.7137  167.8750 N.pl3   1  UNL1       -0.3075
     32 C         141.9005  140.0479  167.9402 C.3     1  UNL1        0.0908
     33 C         142.3620  139.4141  169.2190 C.3     1  UNL1        0.0215
     34 C         141.4809  139.4460  170.4325 C.3     1  UNL1        0.0035
     35 C         140.1384  140.1119  170.3673 C.3     1  UNL1        0.0215
     36 C         139.6769  140.7457  169.0885 C.3     1  UNL1        0.0908
@<TRIPOS>BOND
     1    16    17    2
     2    17    12    1
     3    12    13    2
     4    12    14   am
     5     7    14    1
     6     7     8    1
     7     8     9    1
     8     9    10    1
     9    10     1    1
    10     1     2   ar
    11     2     3   ar
    12     3     4   ar
    13     4    18    1
    14    18    19   am
    15    18    20    2
    16     4     5   ar
    17     5    23    1
    18    23    25    1
    19    25    26   ar
    20    26    27   ar
    21    27    28   ar
    22    28    31    1
    23    31    32    1
    24    32    33    1
    25    33    34    1
    26    34    35    1
    27    35    36    1
    28    28    29   ar
    29    29    30   ar
    30     5     6   ar
    31    10    11    1
    32    11     7    1
    33     6     1   ar
    34    30    25   ar
    35    36    31    1
    36    14    15    1
    37    19    21    1
    38    19    22    1
    39    23    24    1
@<TRIPOS>MOLECULE
*****
 36 39 0 0 0
SMALL
GASTEIGER

@<TRIPOS>ATOM
      1 C         135.3440  140.1568  155.8083 C.ar    1  UNL1        0.1331
      2 C         135.7636  139.5890  154.4848 C.ar    1  UNL1        0.0346
      3 C         137.2195  139.4967  154.1360 C.ar    1  UNL1        0.0102
      4 C         138.2558  139.9722  155.1106 C.ar    1  UNL1        0.0849
      5 C         137.8363  140.5401  156.4340 C.ar    1  UNL1        0.1379
      6 N         136.3804  140.6324  156.7828 N.ar    1  UNL1       -0.2158
      7 C         131.7571  139.9283  157.2738 C.3     1  UNL1        0.0933
      8 C         131.5380  140.8542  156.1141 C.3     1  UNL1        0.0428
      9 C         132.8549  141.0525  155.4240 C.3     1  UNL1        0.0940
     10 N         133.8880  140.2491  156.1572 N.pl3   1  UNL1       -0.2915
     11 C         133.2095  139.5544  157.3004 C.3     1  UNL1        0.1117
     12 C         129.8535  138.2739  157.8976 C.2     1  UNL1        0.2460
     13 O         130.0481  137.5585  156.5937 O.2     1  UNL1       -0.2701
     14 N         130.7081  139.4588  158.2377 N.am    1  UNL1       -0.3007
     15 H         130.5804  139.9284  159.0935 H       1  UNL1        0.1497
     16 C         128.2810  138.7370  159.9133 C.2     1  UNL1        0.0048
     17 C         128.8044  137.8044  158.8615 C.2     1  UNL1        0.0577
     18 C         139.7118  139.8799  154.7617 C.2     1  UNL1        0.2455
     19 N         140.1629  140.1302  153.3532 N.am    1  UNL1       -0.3252
     20 O         140.7167  139.5373  155.8213 O.2     1  UNL1       -0.2703
     21 H         139.5033  140.3551  152.6577 H       1  UNL1        0.1453
     22 H         141.1185  140.0696  153.1242 H       1  UNL1        0.1453
     23 N         138.8726  141.0156  157.4086 N.pl3   1  UNL1       -0.2978
     24 H         139.5962  141.6108  157.1063 H       1  UNL1        0.1536
     25 C         138.8065  140.5843  158.8437 C.ar    1  UNL1        0.0494
     26 C         139.2191  139.1945  159.2289 C.ar    1  UNL1        0.0159
     27 C         139.1530  138.7632  160.6641 C.ar    1  UNL1        0.0158
     28 C         138.6743  139.7217  161.7140 C.ar    1  UNL1        0.0479
     29 C         138.2617  141.1114  161.3287 C.ar    1  UNL1        0.0158
     30 C         138.3278  141.5427  159.8936 C.ar    1  UNL1        0.0159
     31 N         138.6082  139.2904  163.1492 N.pl3   1  UNL1       -0.3075
     32 C         138.9219  137.8715  163.5211 C.3     1  UNL1        0.0908
     33 C         138.8558  137.4402  164.9562 C.3     1  UNL1        0.0215
     34 C         138.4759  138.4277  166.0194 C.3     1  UNL1        0.0035
     35 C         138.1622  139.8466  165.6474 C.3     1  UNL1        0.0215
     36 C         138.2283  140.2779  164.2123 C.3     1  UNL1        0.0908
@<TRIPOS>BOND
     1    16    17    2
     2    17    12    1
     3    12    13    2
     4    12    14   am
     5     7    14    1
     6     7     8    1
     7     8     9    1
     8     9    10    1
     9    10     1    1
    10     1     2   ar
    11     2     3   ar
    12     3     4   ar
    13     4    18    1
    14    18    19   am
    15    18    20    2
    16     4     5   ar
    17     5    23    1
    18    23    25    1
    19    25    26   ar
    20    26    27   ar
    21    27    28   ar
    22    28    31    1
    23    31    32    1
    24    32    33    1
    25    33    34    1
    26    34    35    1
    27    35    36    1
    28    28    29   ar
    29    29    30   ar
    30     5     6   ar
    31    10    11    1
    32    11     7    1
    33     6     1   ar
    34    30    25   ar
    35    36    31    1
    36    14    15    1
    37    19    21    1
    38    19    22    1
    39    23    24    1
@<TRIPOS>MOLECULE
*****
 36 39 0 0 0
SMALL
GASTEIGER

@<TRIPOS>ATOM
      1 C         142.2154  138.4971  159.9808 C.ar    1  UNL1        0.1331
      2 C         140.8080  138.9523  159.7324 C.ar    1  UNL1        0.0346
      3 C         140.1390  138.6420  158.4262 C.ar    1  UNL1        0.0102
      4 C         140.8774  137.8765  157.3685 C.ar    1  UNL1        0.0849
      5 C         142.2849  137.4213  157.6170 C.ar    1  UNL1        0.1379
      6 N         142.9539  137.7316  158.9232 N.ar    1  UNL1       -0.2158
      7 C         143.4396  138.8235  163.6497 C.3     1  UNL1        0.0933
      8 C         144.3888  139.7463  162.9443 C.3     1  UNL1        0.0428
      9 C         144.0457  139.7363  161.4841 C.3     1  UNL1        0.0940
     10 N         142.8845  138.8074  161.2871 N.pl3   1  UNL1       -0.2915
     11 C         142.5099  138.2432  162.6255 C.3     1  UNL1        0.1117
     12 C         142.8116  139.5163  166.0737 C.2     1  UNL1        0.2460
     13 O         142.2168  140.7919  165.5549 O.2     1  UNL1       -0.2701
     14 N         143.4230  138.5321  165.1211 N.am    1  UNL1       -0.3007
     15 H         143.8134  137.6949  165.4615 H       1  UNL1        0.1497
     16 C         141.8640  139.9781  168.4483 C.2     1  UNL1        0.0048
     17 C         142.7950  139.2249  167.5450 C.2     1  UNL1        0.0577
     18 C         140.2083  137.5662  156.0623 C.2     1  UNL1        0.2455
     19 N         138.8671  136.8948  156.0475 N.am    1  UNL1       -0.3252
     20 O         140.8805  137.9274  154.7709 O.2     1  UNL1       -0.2703
     21 H         138.4259  136.6578  156.8951 H       1  UNL1        0.1453
     22 H         138.4280  136.6912  155.1903 H       1  UNL1        0.1453
     23 N         143.0233  136.6558  156.5593 N.pl3   1  UNL1       -0.2978
     24 H         143.5844  137.1340  155.9068 H       1  UNL1        0.1536
     25 C         142.9069  135.1617  156.4957 C.ar    1  UNL1        0.0494
     26 C         143.7785  134.3038  157.3643 C.ar    1  UNL1        0.0159
     27 C         143.6620  132.8097  157.3007 C.ar    1  UNL1        0.0158
     28 C         142.6740  132.1734  156.3686 C.ar    1  UNL1        0.0479
     29 C         141.8024  133.0313  155.5000 C.ar    1  UNL1        0.0158
     30 C         141.9188  134.5254  155.5635 C.ar    1  UNL1        0.0159
     31 N         142.5575  130.6793  156.3050 N.pl3   1  UNL1       -0.3075
     32 C         141.6590  130.0397  155.2883 C.3     1  UNL1        0.0908
     33 C         141.5425  128.5456  155.2247 C.3     1  UNL1        0.0215
     34 C         142.3245  127.6911  156.1777 C.3     1  UNL1        0.0035
     35 C         143.2230  128.3307  157.1943 C.3     1  UNL1        0.0215
     36 C         143.3395  129.8248  157.2580 C.3     1  UNL1        0.0908
@<TRIPOS>BOND
     1    16    17    2
     2    17    12    1
     3    12    13    2
     4    12    14   am
     5     7    14    1
     6     7     8    1
     7     8     9    1
     8     9    10    1
     9    10     1    1
    10     1     2   ar
    11     2     3   ar
    12     3     4   ar
    13     4    18    1
    14    18    19   am
    15    18    20    2
    16     4     5   ar
    17     5    23    1
    18    23    25    1
    19    25    26   ar
    20    26    27   ar
    21    27    28   ar
    22    28    31    1
    23    31    32    1
    24    32    33    1
    25    33    34    1
    26    34    35    1
    27    35    36    1
    28    28    29   ar
    29    29    30   ar
    30     5     6   ar
    31    10    11    1
    32    11     7    1
    33     6     1   ar
    34    30    25   ar
    35    36    31    1
    36    14    15    1
    37    19    21    1
    38    19    22    1
    39    23    24    1
