@<TRIPOS>MOLECULE
*****
 36 39 0 0 0
SMALL
GASTEIGER

@<TRIPOS>ATOM
      1 C         140.3796  139.9606  166.8191 C.ar    1  UNL1        0.0730
      2 C         140.1842  139.1810  165.5525 C.ar    1  UNL1        0.0322
      3 C         138.9802  138.3009  165.3919 C.ar    1  UNL1        0.0653
      4 C         137.9717  138.2002  166.4978 C.ar    1  UNL1        0.1133
      5 N         138.1672  138.9798  167.7643 N.ar    1  UNL1       -0.2367
      6 C         139.3712  139.8599  167.9249 C.ar    1  UNL1        0.1476
      7 C         139.5667  140.6395  169.1915 C.2     1  UNL1        0.2617
      8 N         139.2756  140.0014  170.5174 N.am    1  UNL1       -0.3240
      9 O         140.0532  142.0572  169.1321 O.2     1  UNL1       -0.2687
     10 H         138.9563  139.0709  170.5564 H       1  UNL1        0.1453
     11 H         139.4039  140.5130  171.3487 H       1  UNL1        0.1453
     12 N         141.5836  140.8408  166.9798 N.pl3   1  UNL1       -0.2965
     13 H         141.9691  140.9892  167.8734 H       1  UNL1        0.1537
     14 C         145.6432  141.5062  163.8053 C.3     1  UNL1        0.0523
     15 C         144.2298  141.8276  164.1917 C.ar    1  UNL1        0.0653
     16 C         143.6134  141.1735  165.3926 C.ar    1  UNL1        0.0493
     17 C         142.2001  141.4949  165.7789 C.ar    1  UNL1        0.1366
     18 N         141.4032  142.4704  164.9644 N.ar    1  UNL1       -0.1937
     19 C         142.0197  143.1245  163.7635 C.ar    1  UNL1        0.2711
     20 N         143.4329  142.8031  163.3772 N.ar    1  UNL1       -0.2130
     21 N         141.2228  144.0999  162.9490 N.ar    1  UNL1       -0.1107
     22 N         141.5440  144.5551  161.5563 N.ar    1  UNL1       -0.1418
     23 C         140.4845  145.5280  161.1306 C.ar    1  UNL1        0.1447
     24 C         139.5086  145.6741  162.2603 C.ar    1  UNL1        0.1447
     25 N         139.9649  144.7915  163.3841 N.ar    1  UNL1       -0.1418
     26 N         138.7847  137.5213  164.1254 N.pl3   1  UNL1       -0.3316
     27 H         138.5206  136.5738  164.1663 H       1  UNL1        0.1468
     28 C         138.9916  138.1855  162.7964 C.3     1  UNL1        0.0833
     29 C         137.9379  139.0976  162.2417 C.3     1  UNL1        0.0208
     30 C         138.1449  139.7617  160.9127 C.3     1  UNL1        0.0018
     31 C         139.4055  139.5138  160.1385 C.3     1  UNL1        0.0015
     32 C         140.4592  138.6017  160.6933 C.3     1  UNL1        0.0172
     33 C         140.2523  137.9375  162.0222 C.3     1  UNL1        0.0689
     34 N         141.3060  137.0254  162.5770 N.3     1  UNL1       -0.3209
     35 H         141.0016  136.6646  163.4812 H       1  UNL1        0.1189
     36 H         142.1770  137.5433  162.6933 H       1  UNL1        0.1189
@<TRIPOS>BOND
     1    14    15    1
     2    15    16   ar
     3    16    17   ar
     4    17    12    1
     5    12     1    1
     6     1     2   ar
     7     2     3   ar
     8     3    26    1
     9    28    26    1
    10    28    29    1
    11    29    30    1
    12    30    31    1
    13    31    32    1
    14    32    33    1
    15    33    34    1
    16     3     4   ar
    17     4     5   ar
    18     5     6   ar
    19     6     7    1
    20     7     8   am
    21     7     9    2
    22    17    18   ar
    23    18    19   ar
    24    19    21    1
    25    21    22   ar
    26    22    23   ar
    27    23    24   ar
    28    24    25   ar
    29    19    20   ar
    30    20    15   ar
    31     6     1   ar
    32    25    21   ar
    33    33    28    1
    34    12    13    1
    35    26    27    1
    36    34    35    1
    37    34    36    1
    38     8    10    1
    39     8    11    1
@<TRIPOS>MOLECULE
*****
 36 39 0 0 0
SMALL
GASTEIGER

@<TRIPOS>ATOM
      1 C         140.6220  138.8554  165.3826 C.ar    1  UNL1        0.0730
      2 C         140.5193  139.4634  166.7501 C.ar    1  UNL1        0.0322
      3 C         139.2128  139.4367  167.4865 C.ar    1  UNL1        0.0653
      4 C         138.0090  138.8019  166.8555 C.ar    1  UNL1        0.1133
      5 N         138.1118  138.1939  165.4882 N.ar    1  UNL1       -0.2367
      6 C         139.4183  138.2207  164.7517 C.ar    1  UNL1        0.1476
      7 C         139.5210  137.6126  163.3843 C.2     1  UNL1        0.2617
      8 N         138.3490  137.6664  162.4496 N.am    1  UNL1       -0.3240
      9 O         140.7957  136.9509  162.9516 O.2     1  UNL1       -0.2687
     10 H         137.5124  138.1007  162.7336 H       1  UNL1        0.1453
     11 H         138.4165  137.2673  161.5521 H       1  UNL1        0.1453
     12 N         141.9285  138.8822  164.6461 N.pl3   1  UNL1       -0.2965
     13 H         142.4188  138.0442  164.4829 H       1  UNL1        0.1537
     14 C         146.0174  141.8846  163.5205 C.3     1  UNL1        0.0523
     15 C         144.5323  141.6869  163.5956 C.ar    1  UNL1        0.0653
     16 C         143.9729  140.3834  164.0833 C.ar    1  UNL1        0.0493
     17 C         142.4879  140.1858  164.1584 C.ar    1  UNL1        0.1366
     18 N         141.5623  141.2916  163.7458 N.ar    1  UNL1       -0.1937
     19 C         142.1217  142.5952  163.2581 C.ar    1  UNL1        0.2711
     20 N         143.6067  142.7928  163.1830 N.ar    1  UNL1       -0.2130
     21 N         141.1960  143.7010  162.8455 N.ar    1  UNL1       -0.1107
     22 N         139.8355  143.9712  163.4165 N.ar    1  UNL1       -0.1418
     23 C         139.2670  145.1681  162.7133 C.ar    1  UNL1        0.1447
     24 C         140.2762  145.6376  161.7078 C.ar    1  UNL1        0.1447
     25 N         141.4684  144.7309  161.7895 N.ar    1  UNL1       -0.1418
     26 N         139.1100  140.0446  168.8539 N.pl3   1  UNL1       -0.3316
     27 H         138.3424  139.8299  169.4317 H       1  UNL1        0.1468
     28 C         140.1768  140.9799  169.3409 C.3     1  UNL1        0.0833
     29 C         140.1130  142.4373  168.9919 C.3     1  UNL1        0.0208
     30 C         141.1799  143.3725  169.4790 C.3     1  UNL1        0.0018
     31 C         142.3105  142.8503  170.3150 C.3     1  UNL1        0.0015
     32 C         142.3743  141.3929  170.6640 C.3     1  UNL1        0.0172
     33 C         141.3075  140.4577  170.1770 C.3     1  UNL1        0.0689
     34 N         141.3713  139.0002  170.5260 N.3     1  UNL1       -0.3209
     35 H         140.5724  138.5170  170.1154 H       1  UNL1        0.1189
     36 H         141.3496  138.8922  171.5400 H       1  UNL1        0.1189
@<TRIPOS>BOND
     1    14    15    1
     2    15    16   ar
     3    16    17   ar
     4    17    12    1
     5    12     1    1
     6     1     2   ar
     7     2     3   ar
     8     3    26    1
     9    28    26    1
    10    28    29    1
    11    29    30    1
    12    30    31    1
    13    31    32    1
    14    32    33    1
    15    33    34    1
    16     3     4   ar
    17     4     5   ar
    18     5     6   ar
    19     6     7    1
    20     7     8   am
    21     7     9    2
    22    17    18   ar
    23    18    19   ar
    24    19    21    1
    25    21    22   ar
    26    22    23   ar
    27    23    24   ar
    28    24    25   ar
    29    19    20   ar
    30    20    15   ar
    31     6     1   ar
    32    25    21   ar
    33    33    28    1
    34    12    13    1
    35    26    27    1
    36    34    35    1
    37    34    36    1
    38     8    10    1
    39     8    11    1
@<TRIPOS>MOLECULE
*****
 36 39 0 0 0
SMALL
GASTEIGER

@<TRIPOS>ATOM
      1 C         139.0286  141.8111  165.0040 C.ar    1  UNL1        0.0730
      2 C         139.7315  141.4966  166.2914 C.ar    1  UNL1        0.0322
      3 C         139.7242  140.0954  166.8269 C.ar    1  UNL1        0.0653
      4 C         139.0140  139.0089  166.0751 C.ar    1  UNL1        0.1133
      5 N         138.3112  139.3234  164.7879 N.ar    1  UNL1       -0.2367
      6 C         138.3185  140.7246  164.2523 C.ar    1  UNL1        0.1476
      7 C         137.6157  141.0391  162.9650 C.2     1  UNL1        0.2617
      8 N         137.4490  139.9742  161.9219 N.am    1  UNL1       -0.3240
      9 O         137.0796  142.4186  162.7208 O.2     1  UNL1       -0.2687
     10 H         137.8009  139.0688  162.0821 H       1  UNL1        0.1453
     11 H         136.9877  140.1806  161.0770 H       1  UNL1        0.1453
     12 N         139.0360  143.2122  164.4685 N.pl3   1  UNL1       -0.2965
     13 H         138.2540  143.7950  164.6036 H       1  UNL1        0.1537
     14 C         144.0687  144.5030  164.3944 C.3     1  UNL1        0.0523
     15 C         142.7510  144.3708  163.6900 C.ar    1  UNL1        0.0653
     16 C         141.5523  143.8576  164.4314 C.ar    1  UNL1        0.0493
     17 C         140.2347  143.7255  163.7270 C.ar    1  UNL1        0.1366
     18 N         140.1157  144.1066  162.2811 N.ar    1  UNL1       -0.1937
     19 C         141.3143  144.6198  161.5396 C.ar    1  UNL1        0.2711
     20 N         142.6320  144.7519  162.2441 N.ar    1  UNL1       -0.2130
     21 N         141.1953  145.0009  160.0938 N.ar    1  UNL1       -0.1107
     22 N         139.9705  145.5507  159.4248 N.ar    1  UNL1       -0.1418
     23 C         140.2984  145.7887  157.9805 C.ar    1  UNL1        0.1447
     24 C         141.7259  145.3860  157.7569 C.ar    1  UNL1        0.1447
     25 N         142.2802  144.8991  159.0629 N.ar    1  UNL1       -0.1418
     26 N         140.4269  139.7809  168.1142 N.pl3   1  UNL1       -0.3316
     27 H         140.3908  138.8695  168.4848 H       1  UNL1        0.1468
     28 C         141.1849  140.8548  168.8367 C.3     1  UNL1        0.0833
     29 C         142.6046  141.1556  168.4574 C.3     1  UNL1        0.0208
     30 C         143.3625  142.2296  169.1800 C.3     1  UNL1        0.0018
     31 C         142.7007  143.0029  170.2818 C.3     1  UNL1        0.0015
     32 C         141.2810  142.7021  170.6611 C.3     1  UNL1        0.0172
     33 C         140.5230  141.6281  169.9386 C.3     1  UNL1        0.0689
     34 N         139.1033  141.3274  170.3179 N.3     1  UNL1       -0.3209
     35 H         138.7459  140.5755  169.7286 H       1  UNL1        0.1189
     36 H         138.5323  142.1624  170.1872 H       1  UNL1        0.1189
@<TRIPOS>BOND
     1    14    15    1
     2    15    16   ar
     3    16    17   ar
     4    17    12    1
     5    12     1    1
     6     1     2   ar
     7     2     3   ar
     8     3    26    1
     9    28    26    1
    10    28    29    1
    11    29    30    1
    12    30    31    1
    13    31    32    1
    14    32    33    1
    15    33    34    1
    16     3     4   ar
    17     4     5   ar
    18     5     6   ar
    19     6     7    1
    20     7     8   am
    21     7     9    2
    22    17    18   ar
    23    18    19   ar
    24    19    21    1
    25    21    22   ar
    26    22    23   ar
    27    23    24   ar
    28    24    25   ar
    29    19    20   ar
    30    20    15   ar
    31     6     1   ar
    32    25    21   ar
    33    33    28    1
    34    12    13    1
    35    26    27    1
    36    34    35    1
    37    34    36    1
    38     8    10    1
    39     8    11    1
@<TRIPOS>MOLECULE
*****
 36 39 0 0 0
SMALL
GASTEIGER

@<TRIPOS>ATOM
      1 C         138.2221  140.2505  163.7723 C.ar    1  UNL1        0.0730
      2 C         138.2582  140.3168  165.2705 C.ar    1  UNL1        0.0322
      3 C         138.4863  139.0691  166.0711 C.ar    1  UNL1        0.0653
      4 C         138.6784  137.7550  165.3736 C.ar    1  UNL1        0.1133
      5 N         138.6423  137.6887  163.8756 N.ar    1  UNL1       -0.2367
      6 C         138.4142  138.9365  163.0749 C.ar    1  UNL1        0.1476
      7 C         138.3782  138.8702  161.5768 C.2     1  UNL1        0.2617
      8 N         139.2449  137.8861  160.8485 N.am    1  UNL1       -0.3240
      9 O         137.4754  139.7879  160.8069 O.2     1  UNL1       -0.2687
     10 H         139.8375  137.2838  161.3538 H       1  UNL1        0.1453
     11 H         139.2213  137.8426  159.8653 H       1  UNL1        0.1453
     12 N         137.9940  141.4983  162.9716 N.pl3   1  UNL1       -0.2965
     13 H         137.1110  141.6726  162.5727 H       1  UNL1        0.1537
     14 C         139.6231  146.2765  161.7406 C.3     1  UNL1        0.0523
     15 C         139.9258  144.8694  162.1633 C.ar    1  UNL1        0.0653
     16 C         138.8086  143.8874  162.3561 C.ar    1  UNL1        0.0493
     17 C         139.1113  142.4804  162.7787 C.ar    1  UNL1        0.1366
     18 N         140.5314  142.0554  163.0084 N.ar    1  UNL1       -0.1937
     19 C         141.6487  143.0374  162.8156 C.ar    1  UNL1        0.2711
     20 N         141.3459  144.4444  162.3930 N.ar    1  UNL1       -0.2130
     21 N         143.0688  142.6124  163.0453 N.ar    1  UNL1       -0.1107
     22 N         144.0515  142.2113  161.9854 N.ar    1  UNL1       -0.1418
     23 C         145.3456  141.8649  162.6603 C.ar    1  UNL1        0.1447
     24 C         145.1626  142.0519  164.1373 C.ar    1  UNL1        0.1447
     25 N         143.7555  142.5139  164.3752 N.ar    1  UNL1       -0.1418
     26 N         138.5223  139.1353  167.5692 N.pl3   1  UNL1       -0.3316
     27 H         137.8384  138.6658  168.0993 H       1  UNL1        0.1468
     28 C         139.6004  139.9170  168.2596 C.3     1  UNL1        0.0833
     29 C         140.8719  140.2436  167.5339 C.3     1  UNL1        0.0208
     30 C         141.9500  141.0253  168.2244 C.3     1  UNL1        0.0018
     31 C         141.7566  141.4804  169.6405 C.3     1  UNL1        0.0015
     32 C         140.4851  141.1539  170.3662 C.3     1  UNL1        0.0172
     33 C         139.4070  140.3722  169.6758 C.3     1  UNL1        0.0689
     34 N         138.1355  140.0456  170.4015 N.3     1  UNL1       -0.3209
     35 H         137.5198  139.5138  169.7862 H       1  UNL1        0.1189
     36 H         137.6722  140.9101  170.6815 H       1  UNL1        0.1189
@<TRIPOS>BOND
     1    14    15    1
     2    15    16   ar
     3    16    17   ar
     4    17    12    1
     5    12     1    1
     6     1     2   ar
     7     2     3   ar
     8     3    26    1
     9    28    26    1
    10    28    29    1
    11    29    30    1
    12    30    31    1
    13    31    32    1
    14    32    33    1
    15    33    34    1
    16     3     4   ar
    17     4     5   ar
    18     5     6   ar
    19     6     7    1
    20     7     8   am
    21     7     9    2
    22    17    18   ar
    23    18    19   ar
    24    19    21    1
    25    21    22   ar
    26    22    23   ar
    27    23    24   ar
    28    24    25   ar
    29    19    20   ar
    30    20    15   ar
    31     6     1   ar
    32    25    21   ar
    33    33    28    1
    34    12    13    1
    35    26    27    1
    36    34    35    1
    37    34    36    1
    38     8    10    1
    39     8    11    1
@<TRIPOS>MOLECULE
*****
 36 39 0 0 0
SMALL
GASTEIGER

@<TRIPOS>ATOM
      1 C         143.4311  141.6336  165.2378 C.ar    1  UNL1        0.0730
      2 C         142.9251  141.1398  166.5608 C.ar    1  UNL1        0.0322
      3 C         143.0045  139.6800  166.8967 C.ar    1  UNL1        0.0653
      4 C         143.5900  138.7141  165.9096 C.ar    1  UNL1        0.1133
      5 N         144.0960  139.2079  164.5868 N.ar    1  UNL1       -0.2367
      6 C         144.0166  140.6676  164.2509 C.ar    1  UNL1        0.1476
      7 C         144.5226  141.1614  162.9279 C.2     1  UNL1        0.2617
      8 N         143.6104  141.1853  161.7375 N.am    1  UNL1       -0.3240
      9 O         145.9409  141.6314  162.7955 O.2     1  UNL1       -0.2687
     10 H         142.6795  140.8768  161.8244 H       1  UNL1        0.1453
     11 H         143.9425  141.5094  160.8692 H       1  UNL1        0.1453
     12 N         143.3517  143.0933  164.9019 N.pl3   1  UNL1       -0.2965
     13 H         144.0977  143.6929  165.1327 H       1  UNL1        0.1537
     14 C         138.3861  144.6142  165.0753 C.3     1  UNL1        0.0523
     15 C         139.6529  144.4000  164.3010 C.ar    1  UNL1        0.0653
     16 C         140.8689  143.8538  164.9886 C.ar    1  UNL1        0.0493
     17 C         142.1356  143.6396  164.2143 C.ar    1  UNL1        0.1366
     18 N         142.1862  143.9717  162.7524 N.ar    1  UNL1       -0.1937
     19 C         140.9702  144.5179  162.0648 C.ar    1  UNL1        0.2711
     20 N         139.7035  144.7321  162.8391 N.ar    1  UNL1       -0.2130
     21 N         141.0209  144.8500  160.6029 N.ar    1  UNL1       -0.1107
     22 N         142.1811  144.6081  159.6835 N.ar    1  UNL1       -0.1418
     23 C         141.7975  145.0909  158.3161 C.ar    1  UNL1        0.1447
     24 C         140.4001  145.6311  158.3904 C.ar    1  UNL1        0.1447
     25 N         139.9202  145.4823  159.8037 N.ar    1  UNL1       -0.1418
     26 N         142.4985  139.1862  168.2196 N.pl3   1  UNL1       -0.3316
     27 H         142.7339  138.2822  168.5303 H       1  UNL1        0.1468
     28 C         141.6337  140.0698  169.0690 C.3     1  UNL1        0.0833
     29 C         140.1521  140.1139  168.8390 C.3     1  UNL1        0.0208
     30 C         139.2873  140.9976  169.6885 C.3     1  UNL1        0.0018
     31 C         139.9042  141.8369  170.7678 C.3     1  UNL1        0.0015
     32 C         141.3858  141.7927  170.9977 C.3     1  UNL1        0.0172
     33 C         142.2506  140.9092  170.1483 C.3     1  UNL1        0.0689
     34 N         143.7322  140.8650  170.3782 N.3     1  UNL1       -0.3209
     35 H         144.1598  140.2172  169.7164 H       1  UNL1        0.1189
     36 H         143.9193  140.5510  171.3305 H       1  UNL1        0.1189
@<TRIPOS>BOND
     1    14    15    1
     2    15    16   ar
     3    16    17   ar
     4    17    12    1
     5    12     1    1
     6     1     2   ar
     7     2     3   ar
     8     3    26    1
     9    28    26    1
    10    28    29    1
    11    29    30    1
    12    30    31    1
    13    31    32    1
    14    32    33    1
    15    33    34    1
    16     3     4   ar
    17     4     5   ar
    18     5     6   ar
    19     6     7    1
    20     7     8   am
    21     7     9    2
    22    17    18   ar
    23    18    19   ar
    24    19    21    1
    25    21    22   ar
    26    22    23   ar
    27    23    24   ar
    28    24    25   ar
    29    19    20   ar
    30    20    15   ar
    31     6     1   ar
    32    25    21   ar
    33    33    28    1
    34    12    13    1
    35    26    27    1
    36    34    35    1
    37    34    36    1
    38     8    10    1
    39     8    11    1
@<TRIPOS>MOLECULE
*****
 36 39 0 0 0
SMALL
GASTEIGER

@<TRIPOS>ATOM
      1 C         141.8331  141.5751  167.4236 C.ar    1  UNL1        0.0730
      2 C         140.8537  140.6967  166.7030 C.ar    1  UNL1        0.0322
      3 C         139.7171  140.0678  167.4531 C.ar    1  UNL1        0.0653
      4 C         139.5599  140.3172  168.9239 C.ar    1  UNL1        0.1133
      5 N         140.5393  141.1956  169.6445 N.ar    1  UNL1       -0.2367
      6 C         141.6758  141.8245  168.8943 C.ar    1  UNL1        0.1476
      7 C         142.6552  142.7029  169.6150 C.2     1  UNL1        0.2617
      8 N         142.1800  143.6239  170.6994 N.am    1  UNL1       -0.3240
      9 O         144.1098  142.6602  169.2513 O.2     1  UNL1       -0.2687
     10 H         141.2253  143.6519  170.9381 H       1  UNL1        0.1453
     11 H         142.8228  144.2004  171.1724 H       1  UNL1        0.1453
     12 N         142.9696  142.2040  166.6735 N.pl3   1  UNL1       -0.2965
     13 H         143.7280  142.5941  167.1654 H       1  UNL1        0.1537
     14 C         144.5447  140.2874  162.1078 C.3     1  UNL1        0.0523
     15 C         143.7382  141.2803  162.8912 C.ar    1  UNL1        0.0653
     16 C         143.7572  141.2457  164.3906 C.ar    1  UNL1        0.0493
     17 C         142.9507  142.2386  165.1740 C.ar    1  UNL1        0.1366
     18 N         142.1252  143.2661  164.4579 N.ar    1  UNL1       -0.1937
     19 C         142.1062  143.3007  162.9585 C.ar    1  UNL1        0.2711
     20 N         142.9127  142.3078  162.1751 N.ar    1  UNL1       -0.2130
     21 N         141.2807  144.3282  162.2424 N.ar    1  UNL1       -0.1107
     22 N         140.3659  145.3282  162.8850 N.ar    1  UNL1       -0.1418
     23 C         139.7448  146.1542  161.7977 C.ar    1  UNL1        0.1447
     24 C         140.2758  145.6646  160.4831 C.ar    1  UNL1        0.1447
     25 N         141.2250  144.5360  160.7579 N.ar    1  UNL1       -0.1418
     26 N         138.7377  139.1894  166.7325 N.pl3   1  UNL1       -0.3316
     27 H         137.9783  138.7957  167.2198 H       1  UNL1        0.1468
     28 C         138.9154  138.9110  165.2693 C.3     1  UNL1        0.0833
     29 C         139.6915  137.7072  164.8238 C.3     1  UNL1        0.0208
     30 C         139.8692  137.4288  163.3605 C.3     1  UNL1        0.0018
     31 C         139.2707  138.3541  162.3429 C.3     1  UNL1        0.0015
     32 C         138.4946  139.5579  162.7885 C.3     1  UNL1        0.0172
     33 C         138.3169  139.8363  164.2517 C.3     1  UNL1        0.0689
     34 N         137.5408  141.0401  164.6972 N.3     1  UNL1       -0.3209
     35 H         137.5206  141.0735  165.7165 H       1  UNL1        0.1189
     36 H         136.5872  140.9812  164.3400 H       1  UNL1        0.1189
@<TRIPOS>BOND
     1    14    15    1
     2    15    16   ar
     3    16    17   ar
     4    17    12    1
     5    12     1    1
     6     1     2   ar
     7     2     3   ar
     8     3    26    1
     9    28    26    1
    10    28    29    1
    11    29    30    1
    12    30    31    1
    13    31    32    1
    14    32    33    1
    15    33    34    1
    16     3     4   ar
    17     4     5   ar
    18     5     6   ar
    19     6     7    1
    20     7     8   am
    21     7     9    2
    22    17    18   ar
    23    18    19   ar
    24    19    21    1
    25    21    22   ar
    26    22    23   ar
    27    23    24   ar
    28    24    25   ar
    29    19    20   ar
    30    20    15   ar
    31     6     1   ar
    32    25    21   ar
    33    33    28    1
    34    12    13    1
    35    26    27    1
    36    34    35    1
    37    34    36    1
    38     8    10    1
    39     8    11    1
@<TRIPOS>MOLECULE
*****
 36 39 0 0 0
SMALL
GASTEIGER

@<TRIPOS>ATOM
      1 C         141.9365  140.6515  167.7054 C.ar    1  UNL1        0.0730
      2 C         140.7314  140.3791  166.8546 C.ar    1  UNL1        0.0322
      3 C         139.4317  139.9937  167.4965 C.ar    1  UNL1        0.0653
      4 C         139.3370  139.8807  168.9893 C.ar    1  UNL1        0.1133
      5 N         140.5419  140.1531  169.8400 N.ar    1  UNL1       -0.2367
      6 C         141.8417  140.5385  169.1981 C.ar    1  UNL1        0.1476
      7 C         143.0467  140.8109  170.0489 C.2     1  UNL1        0.2617
      8 N         143.4549  139.8295  171.1073 N.am    1  UNL1       -0.3240
      9 O         143.8435  142.0647  169.8412 O.2     1  UNL1       -0.2687
     10 H         142.9319  139.0066  171.2435 H       1  UNL1        0.1453
     11 H         144.2458  140.0083  171.6656 H       1  UNL1        0.1453
     12 N         143.2362  141.0369  167.0634 N.pl3   1  UNL1       -0.2965
     13 H         144.0689  141.0186  167.5882 H       1  UNL1        0.1537
     14 C         143.5403  144.7645  163.4561 C.3     1  UNL1        0.0523
     15 C         143.4192  143.3139  163.8181 C.ar    1  UNL1        0.0653
     16 C         143.3883  142.9007  165.2597 C.ar    1  UNL1        0.0493
     17 C         143.2671  141.4501  165.6217 C.ar    1  UNL1        0.1366
     18 N         143.1770  140.4127  164.5421 N.ar    1  UNL1       -0.1937
     19 C         143.2079  140.8258  163.1005 C.ar    1  UNL1        0.2711
     20 N         143.3290  142.2764  162.7385 N.ar    1  UNL1       -0.2130
     21 N         143.1177  139.7884  162.0208 N.ar    1  UNL1       -0.1107
     22 N         142.3771  139.9277  160.7239 N.ar    1  UNL1       -0.1418
     23 C         142.5540  138.6549  159.9501 C.ar    1  UNL1        0.1447
     24 C         143.4039  137.7290  160.7688 C.ar    1  UNL1        0.1447
     25 N         143.7523  138.4295  162.0486 N.ar    1  UNL1       -0.1418
     26 N         138.2267  139.7213  166.6458 N.pl3   1  UNL1       -0.3316
     27 H         137.3238  139.8134  167.0273 H       1  UNL1        0.1468
     28 C         138.3974  139.3086  165.2139 C.3     1  UNL1        0.0833
     29 C         138.9004  137.9345  164.8842 C.3     1  UNL1        0.0208
     30 C         139.0711  137.5218  163.4522 C.3     1  UNL1        0.0018
     31 C         138.7388  138.4832  162.3499 C.3     1  UNL1        0.0015
     32 C         138.2358  139.8574  162.6795 C.3     1  UNL1        0.0172
     33 C         138.0651  140.2701  164.1115 C.3     1  UNL1        0.0689
     34 N         137.5621  141.6443  164.4411 N.3     1  UNL1       -0.3209
     35 H         137.5079  141.7526  165.4539 H       1  UNL1        0.1189
     36 H         136.6353  141.7735  164.0353 H       1  UNL1        0.1189
@<TRIPOS>BOND
     1    14    15    1
     2    15    16   ar
     3    16    17   ar
     4    17    12    1
     5    12     1    1
     6     1     2   ar
     7     2     3   ar
     8     3    26    1
     9    28    26    1
    10    28    29    1
    11    29    30    1
    12    30    31    1
    13    31    32    1
    14    32    33    1
    15    33    34    1
    16     3     4   ar
    17     4     5   ar
    18     5     6   ar
    19     6     7    1
    20     7     8   am
    21     7     9    2
    22    17    18   ar
    23    18    19   ar
    24    19    21    1
    25    21    22   ar
    26    22    23   ar
    27    23    24   ar
    28    24    25   ar
    29    19    20   ar
    30    20    15   ar
    31     6     1   ar
    32    25    21   ar
    33    33    28    1
    34    12    13    1
    35    26    27    1
    36    34    35    1
    37    34    36    1
    38     8    10    1
    39     8    11    1
@<TRIPOS>MOLECULE
*****
 36 39 0 0 0
SMALL
GASTEIGER

@<TRIPOS>ATOM
      1 C         140.8275  139.6980  164.8077 C.ar    1  UNL1        0.0730
      2 C         141.0304  139.9957  166.2639 C.ar    1  UNL1        0.0322
      3 C         142.2499  139.4835  166.9713 C.ar    1  UNL1        0.0653
      4 C         143.2665  138.6735  166.2225 C.ar    1  UNL1        0.1133
      5 N         143.0636  138.3759  164.7664 N.ar    1  UNL1       -0.2367
      6 C         141.8441  138.8881  164.0590 C.ar    1  UNL1        0.1476
      7 C         141.6412  138.5904  162.6029 C.2     1  UNL1        0.2617
      8 N         141.9163  139.6483  161.5757 N.am    1  UNL1       -0.3240
      9 O         141.1632  137.2349  162.1740 O.2     1  UNL1       -0.2687
     10 H         142.2300  140.5380  161.8572 H       1  UNL1        0.1453
     11 H         141.7831  139.4529  160.6200 H       1  UNL1        0.1453
     12 N         139.6080  140.2103  164.1003 N.pl3   1  UNL1       -0.2965
     13 H         138.8917  139.5870  163.8400 H       1  UNL1        0.1537
     14 C         138.3953  145.0383  165.5904 C.3     1  UNL1        0.0523
     15 C         138.8735  144.0861  164.5345 C.ar    1  UNL1        0.0653
     16 C         139.0016  142.6243  164.8453 C.ar    1  UNL1        0.0493
     17 C         139.4798  141.6722  163.7895 C.ar    1  UNL1        0.1366
     18 N         139.8298  142.1819  162.4229 N.ar    1  UNL1       -0.1937
     19 C         139.7017  143.6437  162.1121 C.ar    1  UNL1        0.2711
     20 N         139.2235  144.5958  163.1679 N.ar    1  UNL1       -0.2130
     21 N         140.0517  144.1534  160.7455 N.ar    1  UNL1       -0.1107
     22 N         141.1295  145.1458  160.4239 N.ar    1  UNL1       -0.1418
     23 C         141.1293  145.3660  158.9401 C.ar    1  UNL1        0.1447
     24 C         140.0514  144.5095  158.3446 C.ar    1  UNL1        0.1447
     25 N         139.3854  143.7601  159.4604 N.ar    1  UNL1       -0.1418
     26 N         142.4528  139.7811  168.4273 N.pl3   1  UNL1       -0.3316
     27 H         143.1243  139.2793  168.9434 H       1  UNL1        0.1468
     28 C         141.6325  140.8435  169.0970 C.3     1  UNL1        0.0833
     29 C         140.2703  140.5137  169.6315 C.3     1  UNL1        0.0208
     30 C         139.4501  141.5762  170.3012 C.3     1  UNL1        0.0018
     31 C         139.9920  142.9683  170.4365 C.3     1  UNL1        0.0015
     32 C         141.3542  143.2980  169.9020 C.3     1  UNL1        0.0172
     33 C         142.1745  142.2357  169.2323 C.3     1  UNL1        0.0689
     34 N         143.5367  142.5654  168.6978 N.3     1  UNL1       -0.3209
     35 H         143.9485  141.7316  168.2787 H       1  UNL1        0.1189
     36 H         144.1310  142.8919  169.4598 H       1  UNL1        0.1189
@<TRIPOS>BOND
     1    14    15    1
     2    15    16   ar
     3    16    17   ar
     4    17    12    1
     5    12     1    1
     6     1     2   ar
     7     2     3   ar
     8     3    26    1
     9    28    26    1
    10    28    29    1
    11    29    30    1
    12    30    31    1
    13    31    32    1
    14    32    33    1
    15    33    34    1
    16     3     4   ar
    17     4     5   ar
    18     5     6   ar
    19     6     7    1
    20     7     8   am
    21     7     9    2
    22    17    18   ar
    23    18    19   ar
    24    19    21    1
    25    21    22   ar
    26    22    23   ar
    27    23    24   ar
    28    24    25   ar
    29    19    20   ar
    30    20    15   ar
    31     6     1   ar
    32    25    21   ar
    33    33    28    1
    34    12    13    1
    35    26    27    1
    36    34    35    1
    37    34    36    1
    38     8    10    1
    39     8    11    1
@<TRIPOS>MOLECULE
*****
 36 39 0 0 0
SMALL
GASTEIGER

@<TRIPOS>ATOM
      1 C         143.6668  140.5282  160.3802 C.ar    1  UNL1        0.0730
      2 C         143.0949  139.5809  161.3930 C.ar    1  UNL1        0.0322
      3 C         142.6773  138.2014  160.9776 C.ar    1  UNL1        0.0653
      4 C         142.8316  137.7691  159.5495 C.ar    1  UNL1        0.1133
      5 N         143.4035  138.7164  158.5368 N.ar    1  UNL1       -0.2367
      6 C         143.8211  140.0959  158.9522 C.ar    1  UNL1        0.1476
      7 C         144.3930  141.0432  157.9394 C.2     1  UNL1        0.2617
      8 N         145.3923  140.5527  156.9341 N.am    1  UNL1       -0.3240
      9 O         143.9656  142.4810  157.9321 O.2     1  UNL1       -0.2687
     10 H         145.6728  139.6090  156.9389 H       1  UNL1        0.1453
     11 H         145.7677  141.1744  156.2694 H       1  UNL1        0.1453
     12 N         144.0844  141.9078  160.7955 N.pl3   1  UNL1       -0.2965
     13 H         144.7135  142.4204  160.2382 H       1  UNL1        0.1537
     14 C         144.8521  143.7160  165.6061 C.3     1  UNL1        0.0523
     15 C         143.9272  143.4104  164.4653 C.ar    1  UNL1        0.0653
     16 C         144.4682  142.8119  163.2008 C.ar    1  UNL1        0.0493
     17 C         143.5434  142.5063  162.0601 C.ar    1  UNL1        0.1366
     18 N         142.0774  142.7992  162.1840 N.ar    1  UNL1       -0.1937
     19 C         141.5364  143.3977  163.4485 C.ar    1  UNL1        0.2711
     20 N         142.4613  143.7033  164.5892 N.ar    1  UNL1       -0.2130
     21 N         140.0705  143.6905  163.5723 N.ar    1  UNL1       -0.1107
     22 N         139.3227  143.9222  164.8518 N.ar    1  UNL1       -0.1418
     23 C         137.8850  144.1781  164.5087 C.ar    1  UNL1        0.1447
     24 C         137.7443  144.1045  163.0171 C.ar    1  UNL1        0.1447
     25 N         139.0950  143.8032  162.4384 N.ar    1  UNL1       -0.1418
     26 N         142.1054  137.2541  161.9903 N.pl3   1  UNL1       -0.3316
     27 H         142.3787  136.3083  161.9891 H       1  UNL1        0.1468
     28 C         141.1171  137.7479  163.0049 C.3     1  UNL1        0.0833
     29 C         141.5629  138.0355  164.4080 C.3     1  UNL1        0.0208
     30 C         140.5746  138.5293  165.4226 C.3     1  UNL1        0.0018
     31 C         139.1405  138.7355  165.0342 C.3     1  UNL1        0.0015
     32 C         138.6948  138.4479  163.6311 C.3     1  UNL1        0.0172
     33 C         139.6830  137.9542  162.6165 C.3     1  UNL1        0.0689
     34 N         139.2372  137.6666  161.2134 N.3     1  UNL1       -0.3209
     35 H         140.0328  137.3423  160.6636 H       1  UNL1        0.1189
     36 H         138.8593  138.5169  160.7957 H       1  UNL1        0.1189
@<TRIPOS>BOND
     1    14    15    1
     2    15    16   ar
     3    16    17   ar
     4    17    12    1
     5    12     1    1
     6     1     2   ar
     7     2     3   ar
     8     3    26    1
     9    28    26    1
    10    28    29    1
    11    29    30    1
    12    30    31    1
    13    31    32    1
    14    32    33    1
    15    33    34    1
    16     3     4   ar
    17     4     5   ar
    18     5     6   ar
    19     6     7    1
    20     7     8   am
    21     7     9    2
    22    17    18   ar
    23    18    19   ar
    24    19    21    1
    25    21    22   ar
    26    22    23   ar
    27    23    24   ar
    28    24    25   ar
    29    19    20   ar
    30    20    15   ar
    31     6     1   ar
    32    25    21   ar
    33    33    28    1
    34    12    13    1
    35    26    27    1
    36    34    35    1
    37    34    36    1
    38     8    10    1
    39     8    11    1
