@<TRIPOS>MOLECULE
*****
 49 55 0 0 0
SMALL
GASTEIGER

@<TRIPOS>ATOM
      1 C         141.7653  143.6391  160.7641 C.2     1  UNL1        0.2499
      2 O         141.8209  145.1277  160.5881 O.2     1  UNL1       -0.2699
      3 N         141.7185  143.0480  162.1419 N.am    1  UNL1       -0.2760
      4 C         141.7274  143.9455  163.3438 C.3     1  UNL1        0.0940
      5 C         141.6807  143.3545  164.7216 C.3     1  UNL1        0.0257
      6 C         141.6251  141.8658  164.8976 C.3     1  UNL1        0.0236
      7 C         141.6162  140.9683  163.6958 C.3     1  UNL1        0.0257
      8 C         141.6629  141.5594  162.3179 C.3     1  UNL1        0.0940
      9 C         143.0414  141.3604  157.7759 C.ar    1  UNL1        0.1494
     10 C         143.0504  142.2580  158.9777 C.ar    1  UNL1        0.0276
     11 C         141.7564  142.7416  159.5623 C.ar    1  UNL1        0.0656
     12 C         140.4534  142.3276  158.9451 C.ar    1  UNL1        0.0643
     13 CL        139.1594  142.8112  159.5297 Cl      1  UNL1       -0.0820
     14 C         140.4445  141.4300  157.7433 C.ar    1  UNL1        0.0426
     15 C         141.7384  140.9464  157.1587 C.ar    1  UNL1        0.1594
     16 F         141.7296  140.0489  155.9569 F       1  UNL1       -0.2027
     17 S         144.3354  140.8769  157.1914 S.O2    1  UNL1        0.0624
     18 O         144.5182  142.1973  156.5036 O.2     1  UNL1       -0.1529
     19 O         144.1526  139.5564  157.8791 O.2     1  UNL1       -0.1529
     20 C         146.4557  141.3096  155.7536 C.3     1  UNL1        0.1102
     21 N         145.6295  140.3933  156.6067 N.3     1  UNL1       -0.1779
     22 H         146.2183  140.1091  157.3896 H       1  UNL1        0.1488
     23 C         141.6132  142.2986  166.3339 C.ar    1  UNL1       -0.0204
     24 C         140.3759  142.9083  166.9232 C.ar    1  UNL1       -0.0041
     25 C         140.3641  143.3411  168.3594 C.ar    1  UNL1        0.0020
     26 C         141.5895  143.1641  169.2061 C.ar    1  UNL1        0.0296
     27 C         142.8269  142.5544  168.6167 C.ar    1  UNL1        0.1398
     28 F         144.0522  142.3776  169.4634 F       1  UNL1       -0.2042
     29 C         142.8386  142.1217  167.1805 C.ar    1  UNL1        0.0254
     30 C         141.5653  140.5276  165.5724 C.3     1  UNL1        0.0215
     31 C         140.3303  139.6840  165.4574 C.3     1  UNL1        0.0723
     32 N         139.2956  140.0066  164.4205 N.3     1  UNL1       -0.2751
     33 C         138.2598  141.0875  164.5149 C.3     1  UNL1        0.0594
     34 C         137.4389  141.0539  163.2599 C.3     1  UNL1        0.0174
     35 C         137.9674  139.9523  162.3898 C.3     1  UNL1        0.0174
     36 C         139.1148  139.3050  163.1070 C.3     1  UNL1        0.0594
     37 C         140.2098  138.8568  164.0448 C.3     1  UNL1        0.0386
     38 C         140.2696  139.6495  165.3168 C.3     1  UNL1        0.0893
     39 C         139.2945  140.7649  165.5519 C.3     1  UNL1        0.0386
     40 N         141.3044  139.3269  166.3537 N.ar    1  UNL1       -0.3167
     41 C         142.6747  138.7765  166.0904 C.ar    1  UNL1        0.1207
     42 C         142.9252  138.5694  164.6261 C.3     1  UNL1        0.0718
     43 N         143.3677  138.6075  167.4100 N.ar    1  UNL1       -0.2309
     44 C         142.4256  139.0534  168.4887 C.ar    1  UNL1        0.0983
     45 C         142.5643  139.1121  169.9811 C.ar    1  UNL1        0.0206
     46 C         141.4277  139.6153  170.8207 C.ar    1  UNL1        0.0016
     47 C         140.1525  140.0599  170.1679 C.ar    1  UNL1        0.0016
     48 C         140.0139  140.0013  168.6755 C.ar    1  UNL1        0.0188
     49 C         141.1504  139.4980  167.8359 C.ar    1  UNL1        0.0785
@<TRIPOS>BOND
     1    20    21    1
     2    21    17    1
     3    17    18    2
     4    17    19    2
     5    17     9    1
     6     9    10   ar
     7    10    11   ar
     8    11     1    1
     9     1     2    2
    10     1     3   am
    11     3     4    1
    12     4     5    1
    13     5     6    1
    14     6    30    1
    15    30    31    1
    16    31    32    1
    17    32    33    1
    18    33    34    1
    19    34    35    1
    20    35    36    1
    21    36    37    1
    22    37    38    1
    23    38    40    1
    24    40    41   ar
    25    41    42    1
    26    41    43   ar
    27    43    44   ar
    28    44    45   ar
    29    45    46   ar
    30    46    47   ar
    31    47    48   ar
    32    48    49   ar
    33    38    39    1
    34     6    23    1
    35    23    24   ar
    36    24    25   ar
    37    25    26   ar
    38    26    27   ar
    39    27    28    1
    40    27    29   ar
    41     6     7    1
    42     7     8    1
    43    11    12   ar
    44    12    13    1
    45    12    14   ar
    46    14    15   ar
    47    15    16    1
    48    15     9   ar
    49     8     3    1
    50    36    32    1
    51    49    40   ar
    52    29    23   ar
    53    39    33    1
    54    49    44   ar
    55    21    22    1
@<TRIPOS>MOLECULE
*****
 49 55 0 0 0
SMALL
GASTEIGER

@<TRIPOS>ATOM
      1 C         139.8384  139.0296  164.7633 C.2     1  UNL1        0.2499
      2 O         138.8568  137.8959  164.7270 O.2     1  UNL1       -0.2699
      3 N         140.0216  139.9020  163.5569 N.am    1  UNL1       -0.2760
      4 C         139.2232  139.6407  162.3141 C.3     1  UNL1        0.0940
      5 C         139.4064  140.5130  161.1078 C.3     1  UNL1        0.0257
      6 C         140.3880  141.6468  161.1440 C.3     1  UNL1        0.0236
      7 C         141.1863  141.9080  162.3868 C.3     1  UNL1        0.0257
      8 C         141.0031  141.0356  163.5932 C.3     1  UNL1        0.0940
      9 C         140.8038  140.2596  168.4109 C.ar    1  UNL1        0.1494
     10 C         140.0053  139.9983  167.1682 C.ar    1  UNL1        0.0276
     11 C         140.6368  139.2909  166.0059 C.ar    1  UNL1        0.0656
     12 C         142.0666  138.8448  166.0863 C.ar    1  UNL1        0.0643
     13 CL        142.6981  138.1374  164.9240 Cl      1  UNL1       -0.0820
     14 C         142.8651  139.1061  167.3290 C.ar    1  UNL1        0.0426
     15 C         142.2337  139.8135  168.4912 C.ar    1  UNL1        0.1594
     16 F         143.0321  140.0749  169.7339 F       1  UNL1       -0.2027
     17 S         140.1724  140.9670  169.5731 S.O2    1  UNL1        0.0624
     18 O         139.9457  139.6489  170.2522 O.2     1  UNL1       -0.1529
     19 O         140.3991  142.2851  168.8941 O.2     1  UNL1       -0.1529
     20 C         139.6464  143.1661  170.8528 C.3     1  UNL1        0.1102
     21 N         139.5409  141.6744  170.7355 N.3     1  UNL1       -0.1779
     22 H         138.5461  141.4505  170.7113 H       1  UNL1        0.1488
     23 C         139.8677  141.7973  159.7452 C.ar    1  UNL1       -0.0204
     24 C         138.4891  142.3405  159.5122 C.ar    1  UNL1       -0.0041
     25 C         137.9688  142.4910  158.1133 C.ar    1  UNL1        0.0020
     26 C         138.8273  142.0984  156.9476 C.ar    1  UNL1        0.0296
     27 C         140.2059  141.5552  157.1807 C.ar    1  UNL1        0.1398
     28 F         141.0642  141.1625  156.0149 F       1  UNL1       -0.2042
     29 C         140.7261  141.4047  158.5795 C.ar    1  UNL1        0.0254
     30 C         141.1888  142.8327  160.6946 C.3     1  UNL1        0.0215
     31 C         140.9542  144.1763  161.3188 C.3     1  UNL1        0.0723
     32 N         140.1148  144.2921  162.5564 N.3     1  UNL1       -0.2751
     33 C         138.6181  144.2134  162.6173 C.3     1  UNL1        0.0594
     34 C         138.2029  144.3796  164.0491 C.3     1  UNL1        0.0174
     35 C         139.4431  144.5610  164.8732 C.3     1  UNL1        0.0174
     36 C         140.6247  144.5069  163.9508 C.3     1  UNL1        0.0594
     37 C         141.6055  144.4118  162.8069 C.3     1  UNL1        0.0386
     38 C         140.9513  144.1968  161.4744 C.3     1  UNL1        0.0893
     39 C         139.4575  144.0976  161.3796 C.3     1  UNL1        0.0386
     40 N         141.7907  144.0811  160.2367 N.ar    1  UNL1       -0.3167
     41 C         143.1493  143.4513  160.1485 C.ar    1  UNL1        0.1207
     42 C         143.6112  142.9239  161.4745 C.3     1  UNL1        0.0718
     43 N         143.6171  143.5558  158.7271 N.ar    1  UNL1       -0.2309
     44 C         142.5477  144.2501  157.9369 C.ar    1  UNL1        0.0983
     45 C         142.4560  144.6286  156.4884 C.ar    1  UNL1        0.0206
     46 C         141.2355  145.3318  155.9729 C.ar    1  UNL1        0.0016
     47 C         140.1067  145.6564  156.9058 C.ar    1  UNL1        0.0016
     48 C         140.1985  145.2779  158.3544 C.ar    1  UNL1        0.0188
     49 C         141.4190  144.5747  158.8699 C.ar    1  UNL1        0.0785
@<TRIPOS>BOND
     1    20    21    1
     2    21    17    1
     3    17    18    2
     4    17    19    2
     5    17     9    1
     6     9    10   ar
     7    10    11   ar
     8    11     1    1
     9     1     2    2
    10     1     3   am
    11     3     4    1
    12     4     5    1
    13     5     6    1
    14     6    30    1
    15    30    31    1
    16    31    32    1
    17    32    33    1
    18    33    34    1
    19    34    35    1
    20    35    36    1
    21    36    37    1
    22    37    38    1
    23    38    40    1
    24    40    41   ar
    25    41    42    1
    26    41    43   ar
    27    43    44   ar
    28    44    45   ar
    29    45    46   ar
    30    46    47   ar
    31    47    48   ar
    32    48    49   ar
    33    38    39    1
    34     6    23    1
    35    23    24   ar
    36    24    25   ar
    37    25    26   ar
    38    26    27   ar
    39    27    28    1
    40    27    29   ar
    41     6     7    1
    42     7     8    1
    43    11    12   ar
    44    12    13    1
    45    12    14   ar
    46    14    15   ar
    47    15    16    1
    48    15     9   ar
    49     8     3    1
    50    36    32    1
    51    49    40   ar
    52    29    23   ar
    53    39    33    1
    54    49    44   ar
    55    21    22    1
@<TRIPOS>MOLECULE
*****
 49 55 0 0 0
SMALL
GASTEIGER

@<TRIPOS>ATOM
      1 C         141.6658  143.4773  160.7981 C.2     1  UNL1        0.2499
      2 O         141.7268  144.9612  160.5879 O.2     1  UNL1       -0.2699
      3 N         141.6450  142.9171  162.1894 N.am    1  UNL1       -0.2760
      4 C         141.6851  143.8408  163.3705 C.3     1  UNL1        0.0940
      5 C         141.6642  143.2806  164.7618 C.3     1  UNL1        0.0257
      6 C         141.6032  141.7966  164.9720 C.3     1  UNL1        0.0236
      7 C         141.5631  140.8729  163.7909 C.3     1  UNL1        0.0257
      8 C         141.5840  141.4331  162.3996 C.3     1  UNL1        0.0940
      9 C         140.2682  141.1481  157.9047 C.ar    1  UNL1        0.1494
     10 C         140.3082  142.0719  159.0858 C.ar    1  UNL1        0.0276
     11 C         141.6257  142.5535  159.6170 C.ar    1  UNL1        0.0656
     12 C         142.9033  142.1112  158.9671 C.ar    1  UNL1        0.0643
     13 CL        144.2208  142.5927  159.4983 Cl      1  UNL1       -0.0820
     14 C         142.8632  141.1874  157.7860 C.ar    1  UNL1        0.0426
     15 C         141.5457  140.7058  157.2548 C.ar    1  UNL1        0.1594
     16 F         141.5056  139.7820  156.0737 F       1  UNL1       -0.2027
     17 S         138.9506  140.6665  157.3735 S.O2    1  UNL1        0.0624
     18 O         138.9158  139.5995  158.4272 O.2     1  UNL1       -0.1529
     19 O         138.9855  141.7335  156.3198 O.2     1  UNL1       -0.1529
     20 C         136.4950  141.1476  156.6747 C.3     1  UNL1        0.1102
     21 N         137.6330  140.1849  156.8423 N.3     1  UNL1       -0.1779
     22 H         137.8156  139.7819  155.9233 H       1  UNL1        0.1488
     23 C         141.6248  142.2611  166.3982 C.ar    1  UNL1       -0.0204
     24 C         140.3950  142.8648  167.0090 C.ar    1  UNL1       -0.0041
     25 C         140.4165  143.3293  168.4352 C.ar    1  UNL1        0.0020
     26 C         141.6679  143.1900  169.2504 C.ar    1  UNL1        0.0296
     27 C         142.8977  142.5862  168.6396 C.ar    1  UNL1        0.1398
     28 F         144.1490  142.4470  169.4549 F       1  UNL1       -0.2042
     29 C         142.8761  142.1218  167.2134 C.ar    1  UNL1        0.0254
     30 C         141.5497  140.4741  165.6775 C.3     1  UNL1        0.0215
     31 C         140.3195  139.6213  165.5802 C.3     1  UNL1        0.0723
     32 N         139.2924  139.9042  164.5244 N.3     1  UNL1       -0.2751
     33 C         138.2604  140.9921  164.5671 C.3     1  UNL1        0.0594
     34 C         137.4471  140.9091  163.3095 C.3     1  UNL1        0.0174
     35 C         137.9763  139.7700  162.4895 C.3     1  UNL1        0.0174
     36 C         139.1167  139.1489  163.2403 C.3     1  UNL1        0.0594
     37 C         140.2042  138.7362  164.2028 C.3     1  UNL1        0.0386
     38 C         140.2595  139.5812  165.4408 C.3     1  UNL1        0.0893
     39 C         139.2876  140.7092  165.6230 C.3     1  UNL1        0.0386
     40 N         141.2867  139.2983  166.4967 N.ar    1  UNL1       -0.3167
     41 C         142.6661  138.7576  166.2625 C.ar    1  UNL1        0.1207
     42 C         142.9348  138.5151  164.8068 C.3     1  UNL1        0.0718
     43 N         143.3467  138.6316  167.5933 N.ar    1  UNL1       -0.2309
     44 C         142.3878  139.0943  168.6500 C.ar    1  UNL1        0.0983
     45 C         142.5096  139.1938  170.1417 C.ar    1  UNL1        0.0206
     46 C         141.3582  139.7052  170.9557 C.ar    1  UNL1        0.0016
     47 C         140.0850  140.1172  170.2779 C.ar    1  UNL1        0.0016
     48 C         139.9633  140.0178  168.7862 C.ar    1  UNL1        0.0188
     49 C         141.1147  139.5064  167.9722 C.ar    1  UNL1        0.0785
@<TRIPOS>BOND
     1    20    21    1
     2    21    17    1
     3    17    18    2
     4    17    19    2
     5    17     9    1
     6     9    10   ar
     7    10    11   ar
     8    11     1    1
     9     1     2    2
    10     1     3   am
    11     3     4    1
    12     4     5    1
    13     5     6    1
    14     6    30    1
    15    30    31    1
    16    31    32    1
    17    32    33    1
    18    33    34    1
    19    34    35    1
    20    35    36    1
    21    36    37    1
    22    37    38    1
    23    38    40    1
    24    40    41   ar
    25    41    42    1
    26    41    43   ar
    27    43    44   ar
    28    44    45   ar
    29    45    46   ar
    30    46    47   ar
    31    47    48   ar
    32    48    49   ar
    33    38    39    1
    34     6    23    1
    35    23    24   ar
    36    24    25   ar
    37    25    26   ar
    38    26    27   ar
    39    27    28    1
    40    27    29   ar
    41     6     7    1
    42     7     8    1
    43    11    12   ar
    44    12    13    1
    45    12    14   ar
    46    14    15   ar
    47    15    16    1
    48    15     9   ar
    49     8     3    1
    50    36    32    1
    51    49    40   ar
    52    29    23   ar
    53    39    33    1
    54    49    44   ar
    55    21    22    1
@<TRIPOS>MOLECULE
*****
 49 55 0 0 0
SMALL
GASTEIGER

@<TRIPOS>ATOM
      1 C         143.1520  139.1913  157.7118 C.2     1  UNL1        0.2499
      2 O         144.4767  139.7538  157.2890 O.2     1  UNL1       -0.2699
      3 N         142.3787  139.8444  158.8188 N.am    1  UNL1       -0.2760
      4 C         142.9300  141.0601  159.5030 C.3     1  UNL1        0.0940
      5 C         142.1568  141.7133  160.6099 C.3     1  UNL1        0.0257
      6 C         140.8321  141.1507  161.0328 C.3     1  UNL1        0.0236
      7 C         140.2807  139.9350  160.3487 C.3     1  UNL1        0.0257
      8 C         141.0540  139.2819  159.2417 C.3     1  UNL1        0.0940
      9 C         142.6735  135.4170  156.5822 C.ar    1  UNL1        0.1494
     10 C         143.2249  136.6327  157.2663 C.ar    1  UNL1        0.0276
     11 C         142.6006  137.9755  157.0278 C.ar    1  UNL1        0.0656
     12 C         141.4248  138.1027  156.1051 C.ar    1  UNL1        0.0643
     13 CL        140.8004  139.4456  155.8666 Cl      1  UNL1       -0.0820
     14 C         140.8733  136.8871  155.4210 C.ar    1  UNL1        0.0426
     15 C         141.4976  135.5442  155.6595 C.ar    1  UNL1        0.1594
     16 F         140.9462  134.3285  154.9754 F       1  UNL1       -0.2027
     17 S         143.2978  134.0742  156.8207 S.O2    1  UNL1        0.0624
     18 O         143.1534  134.2699  158.3008 O.2     1  UNL1       -0.1529
     19 O         143.4422  133.8784  155.3406 O.2     1  UNL1       -0.1529
     20 C         145.1031  132.6054  157.9756 C.3     1  UNL1        0.1102
     21 N         143.9222  132.7312  157.0593 N.3     1  UNL1       -0.1779
     22 H         143.1906  132.1294  157.4375 H       1  UNL1        0.1488
     23 C         140.9360  142.3111  161.9778 C.ar    1  UNL1       -0.0204
     24 C         141.2711  142.0755  163.4207 C.ar    1  UNL1       -0.0041
     25 C         141.3749  143.2359  164.3657 C.ar    1  UNL1        0.0020
     26 C         141.1437  144.6317  163.8675 C.ar    1  UNL1        0.0296
     27 C         140.8086  144.8673  162.4245 C.ar    1  UNL1        0.1398
     28 F         140.5774  146.2631  161.9265 F       1  UNL1       -0.2042
     29 C         140.7047  143.7069  161.4797 C.ar    1  UNL1        0.0254
     30 C         139.5436  140.9912  161.7838 C.3     1  UNL1        0.0215
     31 C         138.2386  141.2868  161.1057 C.3     1  UNL1        0.0723
     32 N         138.1912  141.4702  159.6178 N.3     1  UNL1       -0.2751
     33 C         138.5506  142.7208  158.8716 C.3     1  UNL1        0.0594
     34 C         138.3575  142.4587  157.4073 C.3     1  UNL1        0.0174
     35 C         137.8789  141.0460  157.2485 C.3     1  UNL1        0.0174
     36 C         137.7760  140.4351  158.6146 C.3     1  UNL1        0.0594
     37 C         137.7689  140.0907  160.0845 C.3     1  UNL1        0.0386
     38 C         138.2071  141.2223  160.9661 C.3     1  UNL1        0.0893
     39 C         138.5980  142.5375  160.3596 C.3     1  UNL1        0.0386
     40 N         138.2545  141.0390  162.4541 N.ar    1  UNL1       -0.3167
     41 C         137.9587  142.0907  163.4819 C.ar    1  UNL1        0.1207
     42 C         137.5943  143.4032  162.8539 C.3     1  UNL1        0.0718
     43 N         138.1275  141.4733  164.8385 N.ar    1  UNL1       -0.2309
     44 C         138.5276  140.0401  164.6491 C.ar    1  UNL1        0.0983
     45 C         138.8305  138.9449  165.6282 C.ar    1  UNL1        0.0206
     46 C         139.2120  137.5812  165.1336 C.ar    1  UNL1        0.0016
     47 C         139.2905  137.3127  163.6599 C.ar    1  UNL1        0.0016
     48 C         138.9876  138.4079  162.6808 C.ar    1  UNL1        0.0188
     49 C         138.6061  139.7717  163.1755 C.ar    1  UNL1        0.0785
@<TRIPOS>BOND
     1    20    21    1
     2    21    17    1
     3    17    18    2
     4    17    19    2
     5    17     9    1
     6     9    10   ar
     7    10    11   ar
     8    11     1    1
     9     1     2    2
    10     1     3   am
    11     3     4    1
    12     4     5    1
    13     5     6    1
    14     6    30    1
    15    30    31    1
    16    31    32    1
    17    32    33    1
    18    33    34    1
    19    34    35    1
    20    35    36    1
    21    36    37    1
    22    37    38    1
    23    38    40    1
    24    40    41   ar
    25    41    42    1
    26    41    43   ar
    27    43    44   ar
    28    44    45   ar
    29    45    46   ar
    30    46    47   ar
    31    47    48   ar
    32    48    49   ar
    33    38    39    1
    34     6    23    1
    35    23    24   ar
    36    24    25   ar
    37    25    26   ar
    38    26    27   ar
    39    27    28    1
    40    27    29   ar
    41     6     7    1
    42     7     8    1
    43    11    12   ar
    44    12    13    1
    45    12    14   ar
    46    14    15   ar
    47    15    16    1
    48    15     9   ar
    49     8     3    1
    50    36    32    1
    51    49    40   ar
    52    29    23   ar
    53    39    33    1
    54    49    44   ar
    55    21    22    1
@<TRIPOS>MOLECULE
*****
 49 55 0 0 0
SMALL
GASTEIGER

@<TRIPOS>ATOM
      1 C         138.5034  140.3588  157.9551 C.2     1  UNL1        0.2499
      2 O         137.0105  140.2568  157.8504 O.2     1  UNL1       -0.2699
      3 N         139.1289  140.9971  159.1598 N.am    1  UNL1       -0.2760
      4 C         138.2616  141.5335  160.2598 C.3     1  UNL1        0.0940
      5 C         138.8871  142.1718  161.4645 C.3     1  UNL1        0.0257
      6 C         140.3800  142.2738  161.5692 C.3     1  UNL1        0.0236
      7 C         141.2473  141.7374  160.4692 C.3     1  UNL1        0.0257
      8 C         140.6218  141.0991  159.2645 C.3     1  UNL1        0.0940
      9 C         140.6401  137.8410  155.7539 C.ar    1  UNL1        0.1494
     10 C         139.7727  138.3773  156.8539 C.ar    1  UNL1        0.0276
     11 C         139.3708  139.8224  156.8552 C.ar    1  UNL1        0.0656
     12 C         139.8363  140.7313  155.7564 C.ar    1  UNL1        0.0643
     13 CL        139.4344  142.1764  155.7576 Cl      1  UNL1       -0.0820
     14 C         140.7037  140.1950  154.6564 C.ar    1  UNL1        0.0426
     15 C         141.1056  138.7499  154.6551 C.ar    1  UNL1        0.1594
     16 F         141.9730  138.2135  153.5552 F       1  UNL1       -0.2027
     17 S         141.0420  136.3959  155.7526 S.O2    1  UNL1        0.0624
     18 O         142.0861  136.6853  156.7900 O.2     1  UNL1       -0.1529
     19 O         139.9979  136.1064  154.7153 O.2     1  UNL1       -0.1529
     20 C         142.6725  134.5133  156.4927 C.3     1  UNL1        0.1102
     21 N         141.4440  134.9506  155.7514 N.3     1  UNL1       -0.1779
     22 H         140.6614  134.4270  156.1436 H       1  UNL1        0.1488
     23 C         139.9832  142.9240  162.8615 C.ar    1  UNL1       -0.0204
     24 C         139.3624  144.2894  162.8544 C.ar    1  UNL1       -0.0041
     25 C         138.9656  144.9397  164.1466 C.ar    1  UNL1        0.0020
     26 C         139.1897  144.2243  165.4459 C.ar    1  UNL1        0.0296
     27 C         139.8105  142.8588  165.4529 C.ar    1  UNL1        0.1398
     28 F         140.0346  142.1436  166.7522 F       1  UNL1       -0.2042
     29 C         140.2073  142.2087  164.1606 C.ar    1  UNL1        0.0254
     30 C         141.7350  142.6015  162.1226 C.3     1  UNL1        0.0215
     31 C         142.5755  143.6595  161.4711 C.3     1  UNL1        0.0723
     32 N         142.1723  144.2243  160.1414 N.3     1  UNL1       -0.2751
     33 C         141.1213  145.2691  159.9092 C.3     1  UNL1        0.0594
     34 C         141.0488  145.5340  158.4345 C.3     1  UNL1        0.0174
     35 C         142.0550  144.6529  157.7553 C.3     1  UNL1        0.0174
     36 C         142.7494  143.8435  158.8101 C.3     1  UNL1        0.0594
     37 C         143.2672  143.1783  160.0626 C.3     1  UNL1        0.0386
     38 C         142.5975  143.6588  161.3157 C.3     1  UNL1        0.0893
     39 C         141.5245  144.7043  161.2390 C.3     1  UNL1        0.0386
     40 N         143.0006  143.0940  162.6455 N.ar    1  UNL1       -0.3167
     41 C         143.0622  143.8472  163.9413 C.ar    1  UNL1        0.1207
     42 C         142.6647  145.2840  163.7753 C.3     1  UNL1        0.0718
     43 N         143.5126  142.8955  165.0096 N.ar    1  UNL1       -0.2309
     44 C         143.7294  141.5541  164.3742 C.ar    1  UNL1        0.0983
     45 C         144.1741  140.2369  164.9372 C.ar    1  UNL1        0.0206
     46 C         144.3023  139.0423  164.0392 C.ar    1  UNL1        0.0016
     47 C         143.9859  139.1650  162.5781 C.ar    1  UNL1        0.0016
     48 C         143.5412  140.4823  162.0150 C.ar    1  UNL1        0.0188
     49 C         143.4130  141.6768  162.9131 C.ar    1  UNL1        0.0785
@<TRIPOS>BOND
     1    20    21    1
     2    21    17    1
     3    17    18    2
     4    17    19    2
     5    17     9    1
     6     9    10   ar
     7    10    11   ar
     8    11     1    1
     9     1     2    2
    10     1     3   am
    11     3     4    1
    12     4     5    1
    13     5     6    1
    14     6    30    1
    15    30    31    1
    16    31    32    1
    17    32    33    1
    18    33    34    1
    19    34    35    1
    20    35    36    1
    21    36    37    1
    22    37    38    1
    23    38    40    1
    24    40    41   ar
    25    41    42    1
    26    41    43   ar
    27    43    44   ar
    28    44    45   ar
    29    45    46   ar
    30    46    47   ar
    31    47    48   ar
    32    48    49   ar
    33    38    39    1
    34     6    23    1
    35    23    24   ar
    36    24    25   ar
    37    25    26   ar
    38    26    27   ar
    39    27    28    1
    40    27    29   ar
    41     6     7    1
    42     7     8    1
    43    11    12   ar
    44    12    13    1
    45    12    14   ar
    46    14    15   ar
    47    15    16    1
    48    15     9   ar
    49     8     3    1
    50    36    32    1
    51    49    40   ar
    52    29    23   ar
    53    39    33    1
    54    49    44   ar
    55    21    22    1
@<TRIPOS>MOLECULE
*****
 49 55 0 0 0
SMALL
GASTEIGER

@<TRIPOS>ATOM
      1 C         139.9109  144.4704  159.2590 C.2     1  UNL1        0.2499
      2 O         139.6083  145.9228  159.4807 O.2     1  UNL1       -0.2699
      3 N         140.5467  143.6617  160.3507 N.am    1  UNL1       -0.2760
      4 C         140.8798  144.3052  161.6640 C.3     1  UNL1        0.0940
      5 C         141.5155  143.4966  162.7556 C.3     1  UNL1        0.0257
      6 C         141.8182  142.0441  162.5340 C.3     1  UNL1        0.0236
      7 C         141.4851  141.4006  161.2207 C.3     1  UNL1        0.0257
      8 C         140.8493  142.2093  160.1290 C.3     1  UNL1        0.0940
      9 C         138.0648  142.2634  156.5257 C.ar    1  UNL1        0.1494
     10 C         138.3978  142.9070  157.8391 C.ar    1  UNL1        0.0276
     11 C         139.5778  143.8268  157.9457 C.ar    1  UNL1        0.0656
     12 C         140.4249  144.1030  156.7389 C.ar    1  UNL1        0.0643
     13 CL        141.6049  145.0228  156.8455 Cl      1  UNL1       -0.0820
     14 C         140.0919  143.4594  155.4256 C.ar    1  UNL1        0.0426
     15 C         138.9118  142.5396  155.3190 C.ar    1  UNL1        0.1594
     16 F         138.5787  141.8959  154.0057 F       1  UNL1       -0.2027
     17 S         136.8847  141.3436  156.4192 S.O2    1  UNL1        0.0624
     18 O         137.6462  140.2813  157.1552 O.2     1  UNL1       -0.1529
     19 O         136.1232  142.4058  155.6831 O.2     1  UNL1       -0.1529
     20 C         134.4450  140.8937  155.6475 C.3     1  UNL1        0.1102
     21 N         135.7046  140.4236  156.3126 N.3     1  UNL1       -0.1779
     22 H         136.0187  139.5999  155.7996 H       1  UNL1        0.1488
     23 C         142.3165  142.2025  163.9400 C.ar    1  UNL1       -0.0204
     24 C         141.5577  141.5875  165.0784 C.ar    1  UNL1       -0.0041
     25 C         142.0560  141.7459  166.4844 C.ar    1  UNL1        0.0020
     26 C         143.3132  142.5192  166.7518 C.ar    1  UNL1        0.0296
     27 C         144.0720  143.1342  165.6133 C.ar    1  UNL1        0.1398
     28 F         145.3291  143.9075  165.8808 F       1  UNL1       -0.2042
     29 C         143.5736  142.9758  164.2074 C.ar    1  UNL1        0.0254
     30 C         142.2939  140.6469  162.8006 C.3     1  UNL1        0.0215
     31 C         143.4647  140.0956  162.0421 C.3     1  UNL1        0.0723
     32 N         144.0115  140.8411  160.8611 N.3     1  UNL1       -0.2751
     33 C         144.8613  142.0761  160.9143 C.3     1  UNL1        0.0594
     34 C         145.1796  142.4809  159.5055 C.3     1  UNL1        0.0174
     35 C         144.5265  141.4962  158.5815 C.3     1  UNL1        0.0174
     36 C         143.8047  140.4827  159.4192 C.3     1  UNL1        0.0594
     37 C         143.1834  139.6249  160.4951 C.3     1  UNL1        0.0386
     38 C         143.4755  140.1048  161.8858 C.3     1  UNL1        0.0893
     39 C         144.3145  141.3305  162.0954 C.3     1  UNL1        0.0386
     40 N         142.9286  139.3592  163.0669 N.ar    1  UNL1       -0.3167
     41 C         143.6563  139.0831  164.3492 C.ar    1  UNL1        0.1207
     42 C         145.0458  139.6481  164.3396 C.3     1  UNL1        0.0718
     43 N         142.7355  138.3121  165.2479 N.ar    1  UNL1       -0.2309
     44 C         141.4387  138.1117  164.5210 C.ar    1  UNL1        0.0983
     45 C         140.1647  137.4236  164.9124 C.ar    1  UNL1        0.0206
     46 C         139.0100  137.3826  163.9559 C.ar    1  UNL1        0.0016
     47 C         139.1294  138.0298  162.6079 C.ar    1  UNL1        0.0016
     48 C         140.4034  138.7180  162.2166 C.ar    1  UNL1        0.0188
     49 C         141.5581  138.7589  163.1731 C.ar    1  UNL1        0.0785
@<TRIPOS>BOND
     1    20    21    1
     2    21    17    1
     3    17    18    2
     4    17    19    2
     5    17     9    1
     6     9    10   ar
     7    10    11   ar
     8    11     1    1
     9     1     2    2
    10     1     3   am
    11     3     4    1
    12     4     5    1
    13     5     6    1
    14     6    30    1
    15    30    31    1
    16    31    32    1
    17    32    33    1
    18    33    34    1
    19    34    35    1
    20    35    36    1
    21    36    37    1
    22    37    38    1
    23    38    40    1
    24    40    41   ar
    25    41    42    1
    26    41    43   ar
    27    43    44   ar
    28    44    45   ar
    29    45    46   ar
    30    46    47   ar
    31    47    48   ar
    32    48    49   ar
    33    38    39    1
    34     6    23    1
    35    23    24   ar
    36    24    25   ar
    37    25    26   ar
    38    26    27   ar
    39    27    28    1
    40    27    29   ar
    41     6     7    1
    42     7     8    1
    43    11    12   ar
    44    12    13    1
    45    12    14   ar
    46    14    15   ar
    47    15    16    1
    48    15     9   ar
    49     8     3    1
    50    36    32    1
    51    49    40   ar
    52    29    23   ar
    53    39    33    1
    54    49    44   ar
    55    21    22    1
@<TRIPOS>MOLECULE
*****
 49 55 0 0 0
SMALL
GASTEIGER

@<TRIPOS>ATOM
      1 C         140.9810  138.5010  164.8535 C.2     1  UNL1        0.2499
      2 O         141.0588  137.0101  164.7081 O.2     1  UNL1       -0.2699
      3 N         141.1944  139.3832  163.6593 N.am    1  UNL1       -0.2760
      4 C         141.4856  138.7745  162.3196 C.3     1  UNL1        0.0940
      5 C         141.6991  139.6566  161.1254 C.3     1  UNL1        0.0257
      6 C         141.6213  141.1476  161.2708 C.3     1  UNL1        0.0236
      7 C         141.3301  141.7563  162.6104 C.3     1  UNL1        0.0257
      8 C         141.1166  140.8741  163.8047 C.3     1  UNL1        0.0940
      9 C         141.5250  140.1960  168.4005 C.ar    1  UNL1        0.1494
     10 C         141.8163  139.5872  167.0609 C.ar    1  UNL1        0.0276
     11 C         140.6898  139.1098  166.1931 C.ar    1  UNL1        0.0656
     12 C         139.2720  139.2413  166.6649 C.ar    1  UNL1        0.0643
     13 CL        138.1455  138.7639  165.7971 Cl      1  UNL1       -0.0820
     14 C         138.9807  139.8500  168.0045 C.ar    1  UNL1        0.0426
     15 C         140.1072  140.3274  168.8723 C.ar    1  UNL1        0.1594
     16 F         139.8160  140.9362  170.2119 F       1  UNL1       -0.2027
     17 S         142.6515  140.6733  169.2683 S.O2    1  UNL1        0.0624
     18 O         142.4165  142.0789  168.8002 O.2     1  UNL1       -0.1529
     19 O         142.8865  139.2678  169.7364 O.2     1  UNL1       -0.1529
     20 C         144.2631  142.5658  170.0243 C.3     1  UNL1        0.1102
     21 N         143.7781  141.1508  170.1362 N.3     1  UNL1       -0.1779
     22 H         143.4823  141.0165  171.1031 H       1  UNL1        0.1488
     23 C         141.9217  141.0442  159.8047 C.ar    1  UNL1       -0.0204
     24 C         140.8311  141.2626  158.7984 C.ar    1  UNL1       -0.0041
     25 C         141.1315  141.1592  157.3324 C.ar    1  UNL1        0.0020
     26 C         142.5227  140.8372  156.8729 C.ar    1  UNL1        0.0296
     27 C         143.6133  140.6187  157.8793 C.ar    1  UNL1        0.1398
     28 F         145.0043  140.2968  157.4197 F       1  UNL1       -0.2042
     29 C         143.3127  140.7222  159.3452 C.ar    1  UNL1        0.0254
     30 C         141.6478  142.6025  160.9071 C.3     1  UNL1        0.0215
     31 C         142.6146  143.5277  161.5850 C.3     1  UNL1        0.0723
     32 N         143.7191  142.9688  162.4320 N.3     1  UNL1       -0.2751
     33 C         143.8221  143.0687  163.9252 C.3     1  UNL1        0.0594
     34 C         145.0813  142.3735  164.3506 C.3     1  UNL1        0.0174
     35 C         145.7567  141.8439  163.1204 C.3     1  UNL1        0.0174
     36 C         144.9149  142.2118  161.9347 C.3     1  UNL1        0.0594
     37 C         143.8872  142.7103  160.9474 C.3     1  UNL1        0.0386
     38 C         142.7500  143.4484  161.5892 C.3     1  UNL1        0.0893
     39 C         142.7174  143.6276  163.0782 C.3     1  UNL1        0.0386
     40 N         141.6454  144.0074  160.7422 N.ar    1  UNL1       -0.3167
     41 C         140.2680  144.3672  161.2146 C.ar    1  UNL1        0.1207
     42 C         140.0901  144.1038  162.6805 C.3     1  UNL1        0.0718
     43 N         139.4956  144.8868  160.0384 N.ar    1  UNL1       -0.2309
     44 C         140.3957  144.8481  158.8390 C.ar    1  UNL1        0.0983
     45 C         140.1771  145.2375  157.4071 C.ar    1  UNL1        0.0206
     46 C         141.2871  145.0834  156.4101 C.ar    1  UNL1        0.0016
     47 C         142.6158  144.5399  156.8451 C.ar    1  UNL1        0.0016
     48 C         142.8344  144.1504  158.2770 C.ar    1  UNL1        0.0188
     49 C         141.7244  144.3045  159.2740 C.ar    1  UNL1        0.0785
@<TRIPOS>BOND
     1    20    21    1
     2    21    17    1
     3    17    18    2
     4    17    19    2
     5    17     9    1
     6     9    10   ar
     7    10    11   ar
     8    11     1    1
     9     1     2    2
    10     1     3   am
    11     3     4    1
    12     4     5    1
    13     5     6    1
    14     6    30    1
    15    30    31    1
    16    31    32    1
    17    32    33    1
    18    33    34    1
    19    34    35    1
    20    35    36    1
    21    36    37    1
    22    37    38    1
    23    38    40    1
    24    40    41   ar
    25    41    42    1
    26    41    43   ar
    27    43    44   ar
    28    44    45   ar
    29    45    46   ar
    30    46    47   ar
    31    47    48   ar
    32    48    49   ar
    33    38    39    1
    34     6    23    1
    35    23    24   ar
    36    24    25   ar
    37    25    26   ar
    38    26    27   ar
    39    27    28    1
    40    27    29   ar
    41     6     7    1
    42     7     8    1
    43    11    12   ar
    44    12    13    1
    45    12    14   ar
    46    14    15   ar
    47    15    16    1
    48    15     9   ar
    49     8     3    1
    50    36    32    1
    51    49    40   ar
    52    29    23   ar
    53    39    33    1
    54    49    44   ar
    55    21    22    1
@<TRIPOS>MOLECULE
*****
 49 55 0 0 0
SMALL
GASTEIGER

@<TRIPOS>ATOM
      1 C         139.5827  138.6760  164.9712 C.2     1  UNL1        0.2499
      2 O         138.5987  137.5565  165.1401 O.2     1  UNL1       -0.2699
      3 N         139.7188  139.3609  163.6436 N.am    1  UNL1       -0.2760
      4 C         138.8710  138.9263  162.4850 C.3     1  UNL1        0.0940
      5 C         139.0072  139.6112  161.1575 C.3     1  UNL1        0.0257
      6 C         139.9911  140.7308  160.9885 C.3     1  UNL1        0.0236
      7 C         140.8389  141.1653  162.1472 C.3     1  UNL1        0.0257
      8 C         140.7028  140.4804  163.4747 C.3     1  UNL1        0.0940
      9 C         140.6607  140.2985  168.4288 C.ar    1  UNL1        0.1494
     10 C         139.8127  139.8639  167.2703 C.ar    1  UNL1        0.0276
     11 C         140.4305  139.1106  166.1297 C.ar    1  UNL1        0.0656
     12 C         141.8961  138.7919  166.1477 C.ar    1  UNL1        0.0643
     13 CL        142.5139  138.0386  165.0071 Cl      1  UNL1       -0.0820
     14 C         142.7441  139.2265  167.3062 C.ar    1  UNL1        0.0426
     15 C         142.1263  139.9798  168.4468 C.ar    1  UNL1        0.1594
     16 F         142.9741  140.4144  169.6053 F       1  UNL1       -0.2027
     17 S         140.0429  141.0518  169.5694 S.O2    1  UNL1        0.0624
     18 O         140.3775  142.3487  168.8941 O.2     1  UNL1       -0.1529
     19 O         139.7083  139.7548  170.2447 O.2     1  UNL1       -0.1529
     20 C         139.6618  143.2797  170.8505 C.3     1  UNL1        0.1102
     21 N         139.4251  141.8051  170.7100 N.3     1  UNL1       -0.1779
     22 H         138.4162  141.6745  170.6371 H       1  UNL1        0.1488
     23 C         139.4156  140.6787  159.6043 C.ar    1  UNL1       -0.0204
     24 C         139.7065  139.5065  158.7147 C.ar    1  UNL1       -0.0041
     25 C         139.1310  139.4544  157.3304 C.ar    1  UNL1        0.0020
     26 C         138.2645  140.5745  156.8359 C.ar    1  UNL1        0.0296
     27 C         137.9736  141.7467  157.7255 C.ar    1  UNL1        0.1398
     28 F         137.1072  142.8668  157.2309 F       1  UNL1       -0.2042
     29 C         138.5492  141.7987  159.1097 C.ar    1  UNL1        0.0254
     30 C         140.7752  141.8321  160.3389 C.3     1  UNL1        0.0215
     31 C         142.2410  141.6542  160.0745 C.3     1  UNL1        0.0723
     32 N         142.9402  140.4092  160.5336 N.3     1  UNL1       -0.2751
     33 C         142.8865  139.0690  159.8618 C.3     1  UNL1        0.0594
     34 C         143.7290  138.1172  160.6582 C.3     1  UNL1        0.0174
     35 C         144.3034  138.8690  161.8221 C.3     1  UNL1        0.0174
     36 C         143.8160  140.2855  161.7452 C.3     1  UNL1        0.0594
     37 C         143.1822  141.6163  161.4187 C.3     1  UNL1        0.0386
     38 C         142.3351  141.5878  160.1812 C.3     1  UNL1        0.0893
     39 C         142.1873  140.3141  159.4027 C.3     1  UNL1        0.0386
     40 N         141.6359  142.8329  159.7221 N.ar    1  UNL1       -0.3167
     41 C         141.3642  143.2174  158.2978 C.ar    1  UNL1        0.1207
     42 C         141.8809  142.1934  157.3312 C.3     1  UNL1        0.0718
     43 N         140.6460  144.5342  158.3022 N.ar    1  UNL1       -0.2309
     44 C         140.4737  144.9636  159.7290 C.ar    1  UNL1        0.0983
     45 C         139.8388  146.1762  160.3426 C.ar    1  UNL1        0.0206
     46 C         139.8157  146.3374  161.8337 C.ar    1  UNL1        0.0016
     47 C         140.4275  145.2859  162.7113 C.ar    1  UNL1        0.0016
     48 C         141.0624  144.0733  162.0977 C.ar    1  UNL1        0.0188
     49 C         141.0855  143.9122  160.6066 C.ar    1  UNL1        0.0785
@<TRIPOS>BOND
     1    20    21    1
     2    21    17    1
     3    17    18    2
     4    17    19    2
     5    17     9    1
     6     9    10   ar
     7    10    11   ar
     8    11     1    1
     9     1     2    2
    10     1     3   am
    11     3     4    1
    12     4     5    1
    13     5     6    1
    14     6    30    1
    15    30    31    1
    16    31    32    1
    17    32    33    1
    18    33    34    1
    19    34    35    1
    20    35    36    1
    21    36    37    1
    22    37    38    1
    23    38    40    1
    24    40    41   ar
    25    41    42    1
    26    41    43   ar
    27    43    44   ar
    28    44    45   ar
    29    45    46   ar
    30    46    47   ar
    31    47    48   ar
    32    48    49   ar
    33    38    39    1
    34     6    23    1
    35    23    24   ar
    36    24    25   ar
    37    25    26   ar
    38    26    27   ar
    39    27    28    1
    40    27    29   ar
    41     6     7    1
    42     7     8    1
    43    11    12   ar
    44    12    13    1
    45    12    14   ar
    46    14    15   ar
    47    15    16    1
    48    15     9   ar
    49     8     3    1
    50    36    32    1
    51    49    40   ar
    52    29    23   ar
    53    39    33    1
    54    49    44   ar
    55    21    22    1
@<TRIPOS>MOLECULE
*****
 49 55 0 0 0
SMALL
GASTEIGER

@<TRIPOS>ATOM
      1 C         139.1772  140.7398  157.9302 C.2     1  UNL1        0.2499
      2 O         138.2358  139.8395  157.1864 O.2     1  UNL1       -0.2699
      3 N         139.4109  140.5329  159.3974 N.am    1  UNL1       -0.2760
      4 C         138.7032  139.4257  160.1208 C.3     1  UNL1        0.0940
      5 C         138.9369  139.2188  161.5879 C.3     1  UNL1        0.0257
      6 C         139.8783  140.1192  162.3318 C.3     1  UNL1        0.0236
      7 C         140.5860  141.2264  161.6084 C.3     1  UNL1        0.0257
      8 C         140.3523  141.4332  160.1412 C.3     1  UNL1        0.0940
      9 C         139.8765  144.2405  156.1964 C.ar    1  UNL1        0.1494
     10 C         139.1687  143.1333  156.9197 C.ar    1  UNL1        0.0276
     11 C         139.8849  141.8470  157.2069 C.ar    1  UNL1        0.0656
     12 C         141.3089  141.6679  156.7708 C.ar    1  UNL1        0.0643
     13 CL        142.0251  140.3816  157.0580 Cl      1  UNL1       -0.0820
     14 C         142.0167  142.7751  156.0475 C.ar    1  UNL1        0.0426
     15 C         141.3005  144.0614  155.7603 C.ar    1  UNL1        0.1594
     16 F         142.0083  145.1686  155.0369 F       1  UNL1       -0.2027
     17 S         139.1604  145.5268  155.9091 S.O2    1  UNL1        0.0624
     18 O         139.8445  146.1690  157.0794 O.2     1  UNL1       -0.1529
     19 O         138.4762  144.8846  154.7389 O.2     1  UNL1       -0.1529
     20 C         139.1550  147.9238  154.9069 C.3     1  UNL1        0.1102
     21 N         138.4442  146.8132  155.6220 N.3     1  UNL1       -0.1779
     22 H         137.6272  146.5761  155.0592 H       1  UNL1        0.1488
     23 C         139.4453  139.2156  163.4481 C.ar    1  UNL1       -0.0204
     24 C         139.8530  137.7721  163.4457 C.ar    1  UNL1       -0.0041
     25 C         139.4200  136.8686  164.5621 C.ar    1  UNL1        0.0020
     26 C         138.5792  137.4086  165.6808 C.ar    1  UNL1        0.0296
     27 C         138.1714  138.8522  165.6831 C.ar    1  UNL1        0.1398
     28 F         137.3307  139.3921  166.8018 F       1  UNL1       -0.2042
     29 C         138.6045  139.7556  164.5667 C.ar    1  UNL1        0.0254
     30 C         140.6693  140.7056  163.4632 C.3     1  UNL1        0.0215
     31 C         142.1521  140.4897  163.5329 C.3     1  UNL1        0.0723
     32 N         142.8724  139.8544  162.3808 N.3     1  UNL1       -0.2751
     33 C         142.9570  138.3839  162.0967 C.3     1  UNL1        0.0594
     34 C         143.7715  138.1986  160.8508 C.3     1  UNL1        0.0174
     35 C         144.1904  139.5545  160.3650 C.3     1  UNL1        0.0174
     36 C         143.6348  140.5778  161.3105 C.3     1  UNL1        0.0594
     37 C         142.9621  141.3678  162.4073 C.3     1  UNL1        0.0386
     38 C         142.2392  140.5113  163.4041 C.3     1  UNL1        0.0893
     39 C         142.2366  139.0193  163.2488 C.3     1  UNL1        0.0386
     40 N         141.5188  141.1467  164.5562 N.ar    1  UNL1       -0.3167
     41 C         141.4146  140.5909  165.9455 C.ar    1  UNL1        0.1207
     42 C         142.1310  139.2800  166.0813 C.3     1  UNL1        0.0718
     43 N         140.6075  141.5502  166.7691 N.ar    1  UNL1       -0.2309
     44 C         140.2130  142.6989  165.8889 C.ar    1  UNL1        0.0983
     45 C         139.4136  143.9397  166.1561 C.ar    1  UNL1        0.0206
     46 C         139.1774  144.9311  165.0555 C.ar    1  UNL1        0.0016
     47 C         139.7406  144.6817  163.6878 C.ar    1  UNL1        0.0016
     48 C         140.5400  143.4410  163.4207 C.ar    1  UNL1        0.0188
     49 C         140.7762  142.4495  164.5212 C.ar    1  UNL1        0.0785
@<TRIPOS>BOND
     1    20    21    1
     2    21    17    1
     3    17    18    2
     4    17    19    2
     5    17     9    1
     6     9    10   ar
     7    10    11   ar
     8    11     1    1
     9     1     2    2
    10     1     3   am
    11     3     4    1
    12     4     5    1
    13     5     6    1
    14     6    30    1
    15    30    31    1
    16    31    32    1
    17    32    33    1
    18    33    34    1
    19    34    35    1
    20    35    36    1
    21    36    37    1
    22    37    38    1
    23    38    40    1
    24    40    41   ar
    25    41    42    1
    26    41    43   ar
    27    43    44   ar
    28    44    45   ar
    29    45    46   ar
    30    46    47   ar
    31    47    48   ar
    32    48    49   ar
    33    38    39    1
    34     6    23    1
    35    23    24   ar
    36    24    25   ar
    37    25    26   ar
    38    26    27   ar
    39    27    28    1
    40    27    29   ar
    41     6     7    1
    42     7     8    1
    43    11    12   ar
    44    12    13    1
    45    12    14   ar
    46    14    15   ar
    47    15    16    1
    48    15     9   ar
    49     8     3    1
    50    36    32    1
    51    49    40   ar
    52    29    23   ar
    53    39    33    1
    54    49    44   ar
    55    21    22    1
