@<TRIPOS>MOLECULE
*****
 40 42 0 0 0
SMALL
GASTEIGER

@<TRIPOS>ATOM
      1 N         139.0237  139.5308  162.8653 N.am    1  UNL1       -0.2797
      2 C         139.6544  138.3944  162.1164 C.3     1  UNL1        0.0956
      3 C         139.1567  138.4385  160.7020 C.3     1  UNL1        0.0505
      4 C         138.2185  139.6021  160.5768 C.3     1  UNL1        0.1507
      5 C         138.1363  140.2772  161.9138 C.2     1  UNL1        0.2435
      6 O         137.3114  141.4864  162.2417 O.2     1  UNL1       -0.2731
      7 C         139.6789  140.5260  167.2047 C.3     1  UNL1        0.0577
      8 C         138.6441  139.5122  166.8157 C.3     1  UNL1        0.0177
      9 C         138.4257  139.1805  165.3692 C.3     1  UNL1        0.0212
     10 C         139.2421  139.8625  164.3118 C.3     1  UNL1        0.0771
     11 C         140.2769  140.8763  164.7008 C.3     1  UNL1        0.0431
     12 C         140.4954  141.2080  166.1472 C.3     1  UNL1        0.0194
     13 N         139.8973  140.8577  168.6511 N.3     1  UNL1       -0.2741
     14 C         139.0163  140.2491  169.7015 C.3     1  UNL1        0.0896
     15 C         140.6889  143.2414  169.3154 C.3     1  UNL1        0.0173
     16 C         140.9968  141.7981  169.0472 C.3     1  UNL1        0.0576
     17 C         142.4042  141.2951  169.1752 C.3     1  UNL1        0.0173
     18 C         141.0934  141.5584  163.6433 C.3     1  UNL1        0.1523
     19 S         142.5907  141.5552  163.7334 S.O2    1  UNL1       -0.0131
     20 O         142.5757  143.0248  164.0333 O.2     1  UNL1       -0.1731
     21 O         142.6056  140.0856  163.4335 O.2     1  UNL1       -0.1731
     22 C         144.0880  141.5521  163.8236 C.3     1  UNL1        0.1107
     23 C         144.0256  142.5994  164.8956 C.3     1  UNL1        0.0236
     24 C         144.1504  140.5048  162.7516 C.3     1  UNL1        0.0236
     25 C         145.5853  141.5490  163.9137 C.3     1  UNL1        0.0236
     26 N         137.4903  140.0177  159.3330 N.am    1  UNL1       -0.2948
     27 C         138.0556  141.0972  158.4582 C.2     1  UNL1        0.2462
     28 O         139.3490  141.7611  158.8272 O.2     1  UNL1       -0.2701
     29 H         136.6413  139.5820  159.0908 H       1  UNL1        0.1501
     30 C         137.3274  141.5127  157.2145 C.ar    1  UNL1        0.0564
     31 C         137.8245  142.6753  156.4074 C.ar    1  UNL1        0.0047
     32 C         137.0962  143.0909  155.1636 C.ar    1  UNL1        0.0033
     33 C         135.8709  142.3439  154.7269 C.ar    1  UNL1        0.0372
     34 C         135.3738  141.1814  155.5340 C.ar    1  UNL1        0.1469
     35 C         136.1021  140.7658  156.7778 C.ar    1  UNL1        0.0417
     36 O         134.1485  140.4345  155.0973 O.3     1  UNL1       -0.4045
     37 C         132.9813  140.2981  156.0295 C.3     1  UNL1        0.5753
     38 F         131.8141  140.1618  156.9618 F       1  UNL1       -0.1328
     39 F         133.2928  138.8416  156.2066 F       1  UNL1       -0.1328
     40 F         132.6698  141.7547  155.8525 F       1  UNL1       -0.1328
@<TRIPOS>BOND
     1    15    16    1
     2    16    17    1
     3    16    13    1
     4    13    14    1
     5     7    13    1
     6     7     8    1
     7     8     9    1
     8     9    10    1
     9    10     1    1
    10     1     2    1
    11     2     3    1
    12     3     4    1
    13     4    26    1
    14    26    27   am
    15    27    28    2
    16    27    30    1
    17    30    31   ar
    18    31    32   ar
    19    32    33   ar
    20    33    34   ar
    21    34    36    1
    22    36    37    1
    23    37    38    1
    24    37    39    1
    25    37    40    1
    26    34    35   ar
    27     4     5    1
    28     5     6    2
    29    10    11    1
    30    11    18    1
    31    18    19    1
    32    19    20    2
    33    19    21    2
    34    19    22    1
    35    22    23    1
    36    22    24    1
    37    22    25    1
    38    11    12    1
    39    12     7    1
    40     5     1   am
    41    35    30   ar
    42    26    29    1
@<TRIPOS>MOLECULE
*****
 40 42 0 0 0
SMALL
GASTEIGER

@<TRIPOS>ATOM
      1 N         142.9595  139.0937  163.1776 N.am    1  UNL1       -0.2797
      2 C         144.0445  139.8236  162.4427 C.3     1  UNL1        0.0956
      3 C         144.0766  139.3100  161.0337 C.3     1  UNL1        0.0505
      4 C         143.0113  138.2627  160.8978 C.3     1  UNL1        0.1507
      5 C         142.3210  138.1291  162.2228 C.2     1  UNL1        0.2435
      6 O         141.1905  137.1948  162.5377 O.2     1  UNL1       -0.2731
      7 C         141.8202  139.6930  167.4895 C.3     1  UNL1        0.0577
      8 C         143.0768  138.9513  167.1419 C.3     1  UNL1        0.0177
      9 C         143.4565  138.7516  165.7046 C.3     1  UNL1        0.0212
     10 C         142.5798  139.2935  164.6149 C.3     1  UNL1        0.0771
     11 C         141.3232  140.0352  164.9625 C.3     1  UNL1        0.0431
     12 C         140.9434  140.2350  166.3998 C.3     1  UNL1        0.0194
     13 N         141.4404  139.8928  168.9268 N.3     1  UNL1       -0.2741
     14 C         142.1666  139.1449  170.0054 C.3     1  UNL1        0.0896
     15 C         138.9818  140.3087  169.6564 C.3     1  UNL1        0.0173
     16 C         140.3345  140.8405  169.2856 C.3     1  UNL1        0.0576
     17 C         140.5812  142.3201  169.2736 C.3     1  UNL1        0.0173
     18 C         140.4463  140.5772  163.8728 C.3     1  UNL1        0.1523
     19 S         139.5819  141.7754  164.1318 S.O2    1  UNL1       -0.0131
     20 O         140.7826  142.6668  164.0149 O.2     1  UNL1       -0.1731
     21 O         138.3813  140.8839  164.2488 O.2     1  UNL1       -0.1731
     22 C         138.7175  142.9736  164.3909 C.3     1  UNL1        0.1107
     23 C         137.6413  142.3837  163.5286 C.3     1  UNL1        0.0236
     24 C         139.7937  143.5636  165.2532 C.3     1  UNL1        0.0236
     25 C         137.8531  144.1718  164.6499 C.3     1  UNL1        0.0236
     26 N         142.6924  137.4855  159.6551 N.am    1  UNL1       -0.2948
     27 C         142.0179  138.1629  158.4992 C.2     1  UNL1        0.2462
     28 O         141.6622  139.6175  158.5860 O.2     1  UNL1       -0.2701
     29 H         142.9259  136.5307  159.5982 H       1  UNL1        0.1501
     30 C         141.6990  137.3857  157.2566 C.ar    1  UNL1        0.0564
     31 C         140.6220  137.8639  156.3286 C.ar    1  UNL1        0.0047
     32 C         140.3031  137.0866  155.0859 C.ar    1  UNL1        0.0033
     33 C         141.0612  135.8311  154.7713 C.ar    1  UNL1        0.0372
     34 C         142.1382  135.3529  155.6993 C.ar    1  UNL1        0.1469
     35 C         142.4571  136.1302  156.9421 C.ar    1  UNL1        0.0417
     36 O         142.8963  134.0973  155.3848 O.3     1  UNL1       -0.4045
     37 C         142.7942  132.9111  156.2971 C.3     1  UNL1        0.5753
     38 F         142.6920  131.7248  157.2094 F       1  UNL1       -0.1328
     39 F         144.2021  133.1448  156.7585 F       1  UNL1       -0.1328
     40 F         141.3862  132.6774  155.8356 F       1  UNL1       -0.1328
@<TRIPOS>BOND
     1    15    16    1
     2    16    17    1
     3    16    13    1
     4    13    14    1
     5     7    13    1
     6     7     8    1
     7     8     9    1
     8     9    10    1
     9    10     1    1
    10     1     2    1
    11     2     3    1
    12     3     4    1
    13     4    26    1
    14    26    27   am
    15    27    28    2
    16    27    30    1
    17    30    31   ar
    18    31    32   ar
    19    32    33   ar
    20    33    34   ar
    21    34    36    1
    22    36    37    1
    23    37    38    1
    24    37    39    1
    25    37    40    1
    26    34    35   ar
    27     4     5    1
    28     5     6    2
    29    10    11    1
    30    11    18    1
    31    18    19    1
    32    19    20    2
    33    19    21    2
    34    19    22    1
    35    22    23    1
    36    22    24    1
    37    22    25    1
    38    11    12    1
    39    12     7    1
    40     5     1   am
    41    35    30   ar
    42    26    29    1
@<TRIPOS>MOLECULE
*****
 40 42 0 0 0
SMALL
GASTEIGER

@<TRIPOS>ATOM
      1 N         138.9514  139.8901  163.5643 N.am    1  UNL1       -0.2797
      2 C         137.6501  140.1670  162.8714 C.3     1  UNL1        0.0956
      3 C         137.7401  139.6164  161.4790 C.3     1  UNL1        0.0505
      4 C         139.0969  138.9993  161.3114 C.3     1  UNL1        0.1507
      5 C         139.8455  139.1684  162.6001 C.2     1  UNL1        0.2435
      6 O         141.2430  138.6984  162.8762 O.2     1  UNL1       -0.2731
      7 C         139.9903  141.0253  167.7931 C.3     1  UNL1        0.0577
      8 C         139.3965  139.6789  167.5023 C.3     1  UNL1        0.0177
      9 C         139.0502  139.3005  166.0927 C.3     1  UNL1        0.0212
     10 C         139.2977  140.2685  164.9739 C.3     1  UNL1        0.0771
     11 C         139.8914  141.6149  165.2647 C.3     1  UNL1        0.0431
     12 C         140.2377  141.9933  166.6743 C.3     1  UNL1        0.0194
     13 N         140.3366  141.4036  169.2027 N.3     1  UNL1       -0.2741
     14 C         139.8902  140.5374  170.3430 C.3     1  UNL1        0.0896
     15 C         142.6252  142.6224  169.3656 C.3     1  UNL1        0.0173
     16 C         141.1292  142.6483  169.4719 C.3     1  UNL1        0.0576
     17 C         140.4259  143.9189  169.8475 C.3     1  UNL1        0.0173
     18 C         140.1389  142.5830  164.1460 C.3     1  UNL1        0.1523
     19 S         141.3900  143.4104  164.1331 S.O2    1  UNL1       -0.0131
     20 O         142.2050  142.1743  163.8927 O.2     1  UNL1       -0.1731
     21 O         140.5750  144.6465  164.3734 O.2     1  UNL1       -0.1731
     22 C         142.6411  144.2378  164.1202 C.3     1  UNL1        0.1107
     23 C         141.8573  145.4152  163.6210 C.3     1  UNL1        0.0236
     24 C         143.4250  143.0604  164.6193 C.3     1  UNL1        0.0236
     25 C         143.8922  145.0652  164.1073 C.3     1  UNL1        0.0236
     26 N         139.6143  138.3304  160.0724 N.am    1  UNL1       -0.2948
     27 C         139.8244  139.1296  158.8206 C.2     1  UNL1        0.2462
     28 O         139.5172  140.5978  158.8077 O.2     1  UNL1       -0.2701
     29 H         139.8160  137.3668  160.0809 H       1  UNL1        0.1501
     30 C         140.3418  138.4607  157.5818 C.ar    1  UNL1        0.0564
     31 C         139.5105  138.4483  156.3333 C.ar    1  UNL1        0.0047
     32 C         140.0279  137.7794  155.0943 C.ar    1  UNL1        0.0033
     33 C         141.3765  137.1228  155.1039 C.ar    1  UNL1        0.0372
     34 C         142.2078  137.1352  156.3525 C.ar    1  UNL1        0.1469
     35 C         141.6904  137.8042  157.5914 C.ar    1  UNL1        0.0417
     36 O         143.5565  136.4787  156.3621 O.3     1  UNL1       -0.4045
     37 C         143.6647  134.9861  156.2605 C.3     1  UNL1        0.5753
     38 F         143.7730  133.4935  156.1590 F       1  UNL1       -0.1328
     39 F         143.9463  135.1064  154.7921 F       1  UNL1       -0.1328
     40 F         143.3832  134.8658  157.7289 F       1  UNL1       -0.1328
@<TRIPOS>BOND
     1    15    16    1
     2    16    17    1
     3    16    13    1
     4    13    14    1
     5     7    13    1
     6     7     8    1
     7     8     9    1
     8     9    10    1
     9    10     1    1
    10     1     2    1
    11     2     3    1
    12     3     4    1
    13     4    26    1
    14    26    27   am
    15    27    28    2
    16    27    30    1
    17    30    31   ar
    18    31    32   ar
    19    32    33   ar
    20    33    34   ar
    21    34    36    1
    22    36    37    1
    23    37    38    1
    24    37    39    1
    25    37    40    1
    26    34    35   ar
    27     4     5    1
    28     5     6    2
    29    10    11    1
    30    11    18    1
    31    18    19    1
    32    19    20    2
    33    19    21    2
    34    19    22    1
    35    22    23    1
    36    22    24    1
    37    22    25    1
    38    11    12    1
    39    12     7    1
    40     5     1   am
    41    35    30   ar
    42    26    29    1
@<TRIPOS>MOLECULE
*****
 40 42 0 0 0
SMALL
GASTEIGER

@<TRIPOS>ATOM
      1 N         138.9709  139.9372  163.7967 N.am    1  UNL1       -0.2797
      2 C         137.7072  140.3175  163.0837 C.3     1  UNL1        0.0956
      3 C         137.7546  139.7229  161.7074 C.3     1  UNL1        0.0505
      4 C         139.0476  138.9751  161.5698 C.3     1  UNL1        0.1507
      5 C         139.7993  139.1076  162.8610 C.2     1  UNL1        0.2435
      6 O         141.1435  138.5145  163.1635 O.2     1  UNL1       -0.2731
      7 C         140.0819  141.0840  168.0039 C.3     1  UNL1        0.0577
      8 C         139.5543  139.7098  167.7156 C.3     1  UNL1        0.0177
      9 C         139.1840  139.3275  166.3132 C.3     1  UNL1        0.0212
     10 C         139.3413  140.3195  165.1991 C.3     1  UNL1        0.0771
     11 C         139.8688  141.6937  165.4874 C.3     1  UNL1        0.0431
     12 C         140.2392  142.0760  166.8898 C.3     1  UNL1        0.0194
     13 N         140.4522  141.4663  169.4063 N.3     1  UNL1       -0.2741
     14 C         140.0701  140.5766  170.5519 C.3     1  UNL1        0.0896
     15 C         142.7046  142.7374  169.6528 C.3     1  UNL1        0.0173
     16 C         141.2047  142.7382  169.6631 C.3     1  UNL1        0.0576
     17 C         140.4571  144.0110  169.9303 C.3     1  UNL1        0.0173
     18 C         140.0261  142.6857  164.3733 C.3     1  UNL1        0.1523
     19 S         141.2899  143.4847  164.2533 S.O2    1  UNL1       -0.0131
     20 O         140.5280  144.7374  164.5695 O.2     1  UNL1       -0.1731
     21 O         142.0518  142.2319  163.9371 O.2     1  UNL1       -0.1731
     22 C         142.5538  144.2837  164.1333 C.3     1  UNL1        0.1107
     23 C         141.7977  145.3746  163.4346 C.3     1  UNL1        0.0236
     24 C         143.3098  143.1928  164.8321 C.3     1  UNL1        0.0236
     25 C         143.8175  145.0827  164.0133 C.3     1  UNL1        0.0236
     26 N         139.5080  138.2263  160.3544 N.am    1  UNL1       -0.2948
     27 C         140.3831  138.9046  159.3423 C.2     1  UNL1        0.2462
     28 O         140.7978  140.3317  159.5458 O.2     1  UNL1       -0.2701
     29 H         139.2358  137.2896  160.2208 H       1  UNL1        0.1501
     30 C         140.8435  138.1557  158.1270 C.ar    1  UNL1        0.0564
     31 C         142.2745  137.7213  158.0112 C.ar    1  UNL1        0.0047
     32 C         142.7350  136.9724  156.7957 C.ar    1  UNL1        0.0033
     33 C         141.7644  136.6579  155.6962 C.ar    1  UNL1        0.0372
     34 C         140.3333  137.0923  155.8120 C.ar    1  UNL1        0.1469
     35 C         139.8729  137.8412  157.0275 C.ar    1  UNL1        0.0417
     36 O         139.3627  136.7778  154.7125 O.3     1  UNL1       -0.4045
     37 C         138.5611  137.8779  154.0823 C.3     1  UNL1        0.5753
     38 F         137.7595  138.9781  153.4522 F       1  UNL1       -0.1328
     39 F         137.3008  137.2674  154.6197 F       1  UNL1       -0.1328
     40 F         139.8214  138.4885  153.5450 F       1  UNL1       -0.1328
@<TRIPOS>BOND
     1    15    16    1
     2    16    17    1
     3    16    13    1
     4    13    14    1
     5     7    13    1
     6     7     8    1
     7     8     9    1
     8     9    10    1
     9    10     1    1
    10     1     2    1
    11     2     3    1
    12     3     4    1
    13     4    26    1
    14    26    27   am
    15    27    28    2
    16    27    30    1
    17    30    31   ar
    18    31    32   ar
    19    32    33   ar
    20    33    34   ar
    21    34    36    1
    22    36    37    1
    23    37    38    1
    24    37    39    1
    25    37    40    1
    26    34    35   ar
    27     4     5    1
    28     5     6    2
    29    10    11    1
    30    11    18    1
    31    18    19    1
    32    19    20    2
    33    19    21    2
    34    19    22    1
    35    22    23    1
    36    22    24    1
    37    22    25    1
    38    11    12    1
    39    12     7    1
    40     5     1   am
    41    35    30   ar
    42    26    29    1
@<TRIPOS>MOLECULE
*****
 40 42 0 0 0
SMALL
GASTEIGER

@<TRIPOS>ATOM
      1 N         141.9926  139.5495  158.4229 N.am    1  UNL1       -0.2797
      2 C         141.1499  139.9477  157.2476 C.3     1  UNL1        0.0956
      3 C         140.9807  138.7436  156.3693 C.3     1  UNL1        0.0505
      4 C         141.7188  137.6011  157.0017 C.3     1  UNL1        0.1507
      5 C         142.3442  138.0992  158.2709 C.2     1  UNL1        0.2435
      6 O         143.1753  137.2892  159.2212 O.2     1  UNL1       -0.2731
      7 C         143.2458  142.2342  161.8099 C.3     1  UNL1        0.0577
      8 C         144.0335  142.2197  160.5335 C.3     1  UNL1        0.0177
      9 C         143.6157  141.3248  159.4045 C.3     1  UNL1        0.0212
     10 C         142.4103  140.4444  159.5519 C.3     1  UNL1        0.0771
     11 C         141.6227  140.4588  160.8283 C.3     1  UNL1        0.0431
     12 C         142.0404  141.3537  161.9573 C.3     1  UNL1        0.0194
     13 N         143.6636  143.1291  162.9389 N.3     1  UNL1       -0.2741
     14 C         143.3241  144.5897  162.9032 C.3     1  UNL1        0.0896
     15 C         145.6856  141.7910  163.8720 C.3     1  UNL1        0.0173
     16 C         144.4208  142.5634  164.1036 C.3     1  UNL1        0.0576
     17 C         143.9131  142.7700  165.4999 C.3     1  UNL1        0.0173
     18 C         140.4172  139.5783  160.9758 C.3     1  UNL1        0.1523
     19 S         140.1278  138.9171  162.2907 S.O2    1  UNL1       -0.0131
     20 O         141.1937  137.8989  162.0133 O.2     1  UNL1       -0.1731
     21 O         139.0619  139.9353  162.5681 O.2     1  UNL1       -0.1731
     22 C         139.8384  138.2558  163.6056 C.3     1  UNL1        0.1107
     23 C         140.9798  137.3091  163.3807 C.3     1  UNL1        0.0236
     24 C         138.6969  139.2026  163.8306 C.3     1  UNL1        0.0236
     25 C         139.5490  137.5945  164.9205 C.3     1  UNL1        0.0236
     26 N         141.8148  136.2056  156.4601 N.am    1  UNL1       -0.2948
     27 C         143.1165  135.7023  155.9104 C.2     1  UNL1        0.2462
     28 O         144.3223  136.5944  155.9024 O.2     1  UNL1       -0.2701
     29 H         141.0233  135.6201  156.4653 H       1  UNL1        0.1501
     30 C         143.2123  134.3068  155.3688 C.ar    1  UNL1        0.0564
     31 C         142.4757  133.9364  154.1158 C.ar    1  UNL1        0.0047
     32 C         142.5715  132.5408  153.5741 C.ar    1  UNL1        0.0033
     33 C         143.4040  131.5157  154.2855 C.ar    1  UNL1        0.0372
     34 C         144.1406  131.8861  155.5386 C.ar    1  UNL1        0.1469
     35 C         144.0448  133.2817  156.0803 C.ar    1  UNL1        0.0417
     36 O         144.9730  130.8610  156.2500 O.3     1  UNL1       -0.4045
     37 C         144.5241  130.3181  157.5743 C.3     1  UNL1        0.5753
     38 F         144.0752  129.7752  158.8986 F       1  UNL1       -0.1328
     39 F         145.4757  131.2416  158.2755 F       1  UNL1       -0.1328
     40 F         143.5725  129.3946  156.8732 F       1  UNL1       -0.1328
@<TRIPOS>BOND
     1    15    16    1
     2    16    17    1
     3    16    13    1
     4    13    14    1
     5     7    13    1
     6     7     8    1
     7     8     9    1
     8     9    10    1
     9    10     1    1
    10     1     2    1
    11     2     3    1
    12     3     4    1
    13     4    26    1
    14    26    27   am
    15    27    28    2
    16    27    30    1
    17    30    31   ar
    18    31    32   ar
    19    32    33   ar
    20    33    34   ar
    21    34    36    1
    22    36    37    1
    23    37    38    1
    24    37    39    1
    25    37    40    1
    26    34    35   ar
    27     4     5    1
    28     5     6    2
    29    10    11    1
    30    11    18    1
    31    18    19    1
    32    19    20    2
    33    19    21    2
    34    19    22    1
    35    22    23    1
    36    22    24    1
    37    22    25    1
    38    11    12    1
    39    12     7    1
    40     5     1   am
    41    35    30   ar
    42    26    29    1
@<TRIPOS>MOLECULE
*****
 40 42 0 0 0
SMALL
GASTEIGER

@<TRIPOS>ATOM
      1 N         142.3417  140.7203  158.2958 N.am    1  UNL1       -0.2797
      2 C         143.2100  141.0445  157.1164 C.3     1  UNL1        0.0956
      3 C         143.6351  139.7522  156.4845 C.3     1  UNL1        0.0505
      4 C         143.0295  138.6293  157.2734 C.3     1  UNL1        0.1507
      5 C         142.2301  139.2276  158.3928 C.2     1  UNL1        0.2435
      6 O         141.4553  138.4667  159.4275 O.2     1  UNL1       -0.2731
      7 C         140.4105  143.7021  161.0579 C.3     1  UNL1        0.0577
      8 C         139.6197  143.0974  159.9359 C.3     1  UNL1        0.0177
      9 C         140.2634  142.1034  159.0152 C.3     1  UNL1        0.0212
     10 C         141.6979  141.7142  159.2165 C.3     1  UNL1        0.0771
     11 C         142.4887  142.3189  160.3385 C.3     1  UNL1        0.0431
     12 C         141.8450  143.3129  161.2592 C.3     1  UNL1        0.0194
     13 N         139.7667  144.6960  161.9786 N.3     1  UNL1       -0.2741
     14 C         139.9159  146.1657  161.7182 C.3     1  UNL1        0.0896
     15 C         139.2885  144.7380  164.5319 C.3     1  UNL1        0.0173
     16 C         138.9739  144.2203  163.1597 C.3     1  UNL1        0.0576
     17 C         137.8663  143.2269  162.9686 C.3     1  UNL1        0.0173
     18 C         143.9234  141.9297  160.5398 C.3     1  UNL1        0.1523
     19 S         144.3445  141.2472  161.8073 S.O2    1  UNL1       -0.0131
     20 O         143.7026  139.9761  161.3361 O.2     1  UNL1       -0.1731
     21 O         144.9864  142.5184  162.2785 O.2     1  UNL1       -0.1731
     22 C         144.7657  140.5646  163.0749 C.3     1  UNL1        0.1107
     23 C         145.5999  141.7566  163.4396 C.3     1  UNL1        0.0236
     24 C         143.9314  139.3726  162.7103 C.3     1  UNL1        0.0236
     25 C         145.1868  139.8821  164.3425 C.3     1  UNL1        0.0236
     26 N         143.1943  137.1651  156.9922 N.am    1  UNL1       -0.2948
     27 C         142.2520  136.4708  156.0541 C.2     1  UNL1        0.2462
     28 O         141.1449  137.2406  155.3972 O.2     1  UNL1       -0.2701
     29 H         143.9209  136.6598  157.4234 H       1  UNL1        0.1501
     30 C         142.4169  135.0067  155.7730 C.ar    1  UNL1        0.0564
     31 C         141.3124  134.2422  155.1053 C.ar    1  UNL1        0.0047
     32 C         141.4773  132.7780  154.8242 C.ar    1  UNL1        0.0033
     33 C         142.7465  132.0783  155.2107 C.ar    1  UNL1        0.0372
     34 C         143.8510  132.8428  155.8784 C.ar    1  UNL1        0.1469
     35 C         143.6861  134.3070  156.1595 C.ar    1  UNL1        0.0417
     36 O         145.1202  132.1431  156.2649 O.3     1  UNL1       -0.4045
     37 C         145.1572  131.2796  157.4909 C.3     1  UNL1        0.5753
     38 F         145.1941  130.4161  158.7169 F       1  UNL1       -0.1328
     39 F         144.9343  130.0637  156.6412 F       1  UNL1       -0.1328
     40 F         145.3800  132.4955  158.3406 F       1  UNL1       -0.1328
@<TRIPOS>BOND
     1    15    16    1
     2    16    17    1
     3    16    13    1
     4    13    14    1
     5     7    13    1
     6     7     8    1
     7     8     9    1
     8     9    10    1
     9    10     1    1
    10     1     2    1
    11     2     3    1
    12     3     4    1
    13     4    26    1
    14    26    27   am
    15    27    28    2
    16    27    30    1
    17    30    31   ar
    18    31    32   ar
    19    32    33   ar
    20    33    34   ar
    21    34    36    1
    22    36    37    1
    23    37    38    1
    24    37    39    1
    25    37    40    1
    26    34    35   ar
    27     4     5    1
    28     5     6    2
    29    10    11    1
    30    11    18    1
    31    18    19    1
    32    19    20    2
    33    19    21    2
    34    19    22    1
    35    22    23    1
    36    22    24    1
    37    22    25    1
    38    11    12    1
    39    12     7    1
    40     5     1   am
    41    35    30   ar
    42    26    29    1
@<TRIPOS>MOLECULE
*****
 40 42 0 0 0
SMALL
GASTEIGER

@<TRIPOS>ATOM
      1 N         143.1552  139.4434  163.7638 N.am    1  UNL1       -0.2797
      2 C         144.3776  139.9301  163.0434 C.3     1  UNL1        0.0956
      3 C         144.3564  139.3593  161.6564 C.3     1  UNL1        0.0505
      4 C         143.1208  138.5199  161.5195 C.3     1  UNL1        0.1507
      5 C         142.3784  138.5719  162.8219 C.2     1  UNL1        0.2435
      6 O         141.0862  137.8748  163.1286 O.2     1  UNL1       -0.2731
      7 C         142.0179  140.4257  168.0054 C.3     1  UNL1        0.0577
      8 C         142.8230  139.1950  167.7106 C.3     1  UNL1        0.0177
      9 C         143.2021  138.8675  166.2968 C.3     1  UNL1        0.0212
     10 C         142.7761  139.7709  165.1776 C.3     1  UNL1        0.0771
     11 C         141.9710  141.0016  165.4724 C.3     1  UNL1        0.0431
     12 C         141.5918  141.3291  166.8863 C.3     1  UNL1        0.0194
     13 N         141.6388  140.7532  169.4193 N.3     1  UNL1       -0.2741
     14 C         142.6343  140.5655  170.5254 C.3     1  UNL1        0.0896
     15 C         139.0921  140.3322  169.7147 C.3     1  UNL1        0.0173
     16 C         140.2641  141.2683  169.7271 C.3     1  UNL1        0.0576
     17 C         140.0612  142.7197  170.0472 C.3     1  UNL1        0.0173
     18 C         141.5449  141.9051  164.3533 C.3     1  UNL1        0.1523
     19 S         140.2632  142.6771  164.4592 S.O2    1  UNL1       -0.0131
     20 O         141.0394  143.9237  164.7649 O.2     1  UNL1       -0.1731
     21 O         139.4871  141.4305  164.1534 O.2     1  UNL1       -0.1731
     22 C         138.9815  143.4492  164.5651 C.3     1  UNL1        0.1107
     23 C         138.2077  142.1643  164.5671 C.3     1  UNL1        0.0236
     24 C         139.7554  144.7341  164.5631 C.3     1  UNL1        0.0236
     25 C         137.6999  144.2212  164.6710 C.3     1  UNL1        0.0236
     26 N         142.7012  137.7616  160.2952 N.am    1  UNL1       -0.2948
     27 C         142.0648  138.4856  159.1460 C.2     1  UNL1        0.2462
     28 O         141.8479  139.9679  159.2210 O.2     1  UNL1       -0.2701
     29 H         142.8435  136.7887  160.2460 H       1  UNL1        0.1501
     30 C         141.6453  137.7273  157.9217 C.ar    1  UNL1        0.0564
     31 C         142.6119  136.8008  157.2455 C.ar    1  UNL1        0.0047
     32 C         142.1923  136.0424  156.0212 C.ar    1  UNL1        0.0033
     33 C         140.8062  136.2105  155.4731 C.ar    1  UNL1        0.0372
     34 C         139.8396  137.1369  156.1494 C.ar    1  UNL1        0.1469
     35 C         140.2591  137.8953  157.3737 C.ar    1  UNL1        0.0417
     36 O         138.4534  137.3050  155.6013 O.3     1  UNL1       -0.4045
     37 C         138.1808  138.3478  154.5581 C.3     1  UNL1        0.5753
     38 F         137.9081  139.3905  153.5149 F       1  UNL1       -0.1328
     39 F         137.8603  139.3414  155.6351 F       1  UNL1       -0.1328
     40 F         138.5012  137.3541  153.4811 F       1  UNL1       -0.1328
@<TRIPOS>BOND
     1    15    16    1
     2    16    17    1
     3    16    13    1
     4    13    14    1
     5     7    13    1
     6     7     8    1
     7     8     9    1
     8     9    10    1
     9    10     1    1
    10     1     2    1
    11     2     3    1
    12     3     4    1
    13     4    26    1
    14    26    27   am
    15    27    28    2
    16    27    30    1
    17    30    31   ar
    18    31    32   ar
    19    32    33   ar
    20    33    34   ar
    21    34    36    1
    22    36    37    1
    23    37    38    1
    24    37    39    1
    25    37    40    1
    26    34    35   ar
    27     4     5    1
    28     5     6    2
    29    10    11    1
    30    11    18    1
    31    18    19    1
    32    19    20    2
    33    19    21    2
    34    19    22    1
    35    22    23    1
    36    22    24    1
    37    22    25    1
    38    11    12    1
    39    12     7    1
    40     5     1   am
    41    35    30   ar
    42    26    29    1
@<TRIPOS>MOLECULE
*****
 40 42 0 0 0
SMALL
GASTEIGER

@<TRIPOS>ATOM
      1 N         140.8134  139.1059  163.6494 N.am    1  UNL1       -0.2797
      2 C         139.5988  138.4325  163.0826 C.3     1  UNL1        0.0956
      3 C         139.9600  137.8832  161.7344 C.3     1  UNL1        0.0505
      4 C         141.3978  138.2171  161.4679 C.3     1  UNL1        0.1507
      5 C         141.9252  138.9728  162.6514 C.2     1  UNL1        0.2435
      6 O         143.3198  139.5023  162.8093 O.2     1  UNL1       -0.2731
      7 C         141.0755  141.1642  167.6425 C.3     1  UNL1        0.0577
      8 C         141.8184  139.8821  167.4094 C.3     1  UNL1        0.0177
      9 C         141.7310  139.1960  166.0784 C.3     1  UNL1        0.0212
     10 C         140.9007  139.7920  164.9805 C.3     1  UNL1        0.0771
     11 C         140.1579  141.0741  165.2136 C.3     1  UNL1        0.0431
     12 C         140.2452  141.7602  166.5446 C.3     1  UNL1        0.0194
     13 N         141.1629  141.8503  168.9736 N.3     1  UNL1       -0.2741
     14 C         142.4300  142.5435  169.3783 C.3     1  UNL1        0.0896
     15 C         139.0999  140.6334  169.9801 C.3     1  UNL1        0.0173
     16 C         139.9831  141.8431  169.8999 C.3     1  UNL1        0.0576
     17 C         139.6866  143.0457  170.7460 C.3     1  UNL1        0.0173
     18 C         139.3275  141.6701  164.1157 C.3     1  UNL1        0.1523
     19 S         139.6758  143.0192  163.5600 S.O2    1  UNL1       -0.0131
     20 O         141.0677  142.5408  163.2708 O.2     1  UNL1       -0.1731
     21 O         138.2839  143.4976  163.8493 O.2     1  UNL1       -0.1731
     22 C         140.0241  144.3683  163.0043 C.3     1  UNL1        0.1107
     23 C         141.4790  144.0047  163.0336 C.3     1  UNL1        0.0236
     24 C         138.5691  144.7319  162.9750 C.3     1  UNL1        0.0236
     25 C         140.3724  145.7173  162.4487 C.3     1  UNL1        0.0236
     26 N         142.1723  137.8583  160.2344 N.am    1  UNL1       -0.2948
     27 C         141.8925  138.5648  158.9411 C.2     1  UNL1        0.2462
     28 O         140.8382  139.6300  158.8813 O.2     1  UNL1       -0.2701
     29 H         142.8643  137.1591  160.2737 H       1  UNL1        0.1501
     30 C         142.6670  138.2060  157.7078 C.ar    1  UNL1        0.0564
     31 C         143.3321  139.2812  156.9006 C.ar    1  UNL1        0.0047
     32 C         144.1067  138.9223  155.6671 C.ar    1  UNL1        0.0033
     33 C         144.2162  137.4884  155.2409 C.ar    1  UNL1        0.0372
     34 C         143.5511  136.4131  156.0481 C.ar    1  UNL1        0.1469
     35 C         142.7765  136.7720  157.2816 C.ar    1  UNL1        0.0417
     36 O         143.6605  134.9792  155.6219 O.3     1  UNL1       -0.4045
     37 C         143.2040  133.8863  156.5423 C.3     1  UNL1        0.5753
     38 F         142.7475  132.7934  157.4627 F       1  UNL1       -0.1328
     39 F         144.5115  133.9564  157.2740 F       1  UNL1       -0.1328
     40 F         141.8965  133.8161  155.8105 F       1  UNL1       -0.1328
@<TRIPOS>BOND
     1    15    16    1
     2    16    17    1
     3    16    13    1
     4    13    14    1
     5     7    13    1
     6     7     8    1
     7     8     9    1
     8     9    10    1
     9    10     1    1
    10     1     2    1
    11     2     3    1
    12     3     4    1
    13     4    26    1
    14    26    27   am
    15    27    28    2
    16    27    30    1
    17    30    31   ar
    18    31    32   ar
    19    32    33   ar
    20    33    34   ar
    21    34    36    1
    22    36    37    1
    23    37    38    1
    24    37    39    1
    25    37    40    1
    26    34    35   ar
    27     4     5    1
    28     5     6    2
    29    10    11    1
    30    11    18    1
    31    18    19    1
    32    19    20    2
    33    19    21    2
    34    19    22    1
    35    22    23    1
    36    22    24    1
    37    22    25    1
    38    11    12    1
    39    12     7    1
    40     5     1   am
    41    35    30   ar
    42    26    29    1
@<TRIPOS>MOLECULE
*****
 40 42 0 0 0
SMALL
GASTEIGER

@<TRIPOS>ATOM
      1 N         142.4065  142.1452  163.1685 N.am    1  UNL1       -0.2797
      2 C         142.6012  143.3637  162.3157 C.3     1  UNL1        0.0956
      3 C         143.0360  142.9114  160.9532 C.3     1  UNL1        0.0505
      4 C         143.1101  141.4133  160.9639 C.3     1  UNL1        0.1507
      5 C         142.7210  140.9397  162.3330 C.2     1  UNL1        0.2435
      6 O         142.6576  139.5115  162.7869 O.2     1  UNL1       -0.2731
      7 C         141.1072  142.1116  167.4767 C.3     1  UNL1        0.0577
      8 C         142.5671  142.1403  167.1338 C.3     1  UNL1        0.0177
      9 C         143.0003  142.1515  165.6978 C.3     1  UNL1        0.0212
     10 C         141.9734  142.1340  164.6045 C.3     1  UNL1        0.0771
     11 C         140.5134  142.1053  164.9474 C.3     1  UNL1        0.0431
     12 C         140.0803  142.0941  166.3834 C.3     1  UNL1        0.0194
     13 N         140.6740  142.1005  168.9127 N.3     1  UNL1       -0.2741
     14 C         140.5674  143.3885  169.6740 C.3     1  UNL1        0.0896
     15 C         141.4399  139.8204  169.8949 C.3     1  UNL1        0.0173
     16 C         140.3475  140.8013  169.5875 C.3     1  UNL1        0.0576
     17 C         138.9284  140.4828  169.9550 C.3     1  UNL1        0.0173
     18 C         139.4865  142.0878  163.8541 C.3     1  UNL1        0.1523
     19 S         139.0664  140.7852  163.2404 S.O2    1  UNL1       -0.0131
     20 O         139.0875  141.4188  161.8810 O.2     1  UNL1       -0.1731
     21 O         139.0453  140.1516  164.5999 O.2     1  UNL1       -0.1731
     22 C         138.6464  139.4825  162.6267 C.3     1  UNL1        0.1107
     23 C         138.0429  140.2222  161.4697 C.3     1  UNL1        0.0236
     24 C         139.2498  138.7427  163.7837 C.3     1  UNL1        0.0236
     25 C         138.2264  138.1798  162.0129 C.3     1  UNL1        0.0236
     26 N         143.5040  140.5417  159.8084 N.am    1  UNL1       -0.2948
     27 C         142.4706  139.7063  159.1126 C.2     1  UNL1        0.2462
     28 O         141.0432  139.7424  159.5723 O.2     1  UNL1       -0.2701
     29 H         144.4408  140.5180  159.5067 H       1  UNL1        0.1501
     30 C         142.8646  138.8348  157.9572 C.ar    1  UNL1        0.0564
     31 C         143.5122  139.4407  156.7474 C.ar    1  UNL1        0.0047
     32 C         143.9063  138.5691  155.5919 C.ar    1  UNL1        0.0033
     33 C         143.6526  137.0917  155.6461 C.ar    1  UNL1        0.0372
     34 C         143.0050  136.4858  156.8558 C.ar    1  UNL1        0.1469
     35 C         142.6109  137.3574  158.0114 C.ar    1  UNL1        0.0417
     36 O         142.7513  135.0084  156.9100 O.3     1  UNL1       -0.4045
     37 C         143.8567  134.0715  157.2977 C.3     1  UNL1        0.5753
     38 F         144.9620  133.1345  157.6854 F       1  UNL1       -0.1328
     39 F         143.5475  134.3063  158.7466 F       1  UNL1       -0.1328
     40 F         144.1658  133.8367  155.8488 F       1  UNL1       -0.1328
@<TRIPOS>BOND
     1    15    16    1
     2    16    17    1
     3    16    13    1
     4    13    14    1
     5     7    13    1
     6     7     8    1
     7     8     9    1
     8     9    10    1
     9    10     1    1
    10     1     2    1
    11     2     3    1
    12     3     4    1
    13     4    26    1
    14    26    27   am
    15    27    28    2
    16    27    30    1
    17    30    31   ar
    18    31    32   ar
    19    32    33   ar
    20    33    34   ar
    21    34    36    1
    22    36    37    1
    23    37    38    1
    24    37    39    1
    25    37    40    1
    26    34    35   ar
    27     4     5    1
    28     5     6    2
    29    10    11    1
    30    11    18    1
    31    18    19    1
    32    19    20    2
    33    19    21    2
    34    19    22    1
    35    22    23    1
    36    22    24    1
    37    22    25    1
    38    11    12    1
    39    12     7    1
    40     5     1   am
    41    35    30   ar
    42    26    29    1
