@<TRIPOS>MOLECULE
*****
 36 38 0 0 0
SMALL
GASTEIGER

@<TRIPOS>ATOM
      1 C         142.9219  140.4315  165.3569 C.2     1  UNL1        0.2521
      2 O         144.0615  139.4582  165.2945 O.2     1  UNL1       -0.2698
      3 N         142.4914  141.1625  164.1198 N.am    1  UNL1       -0.2725
      4 C         141.3517  142.1359  164.1822 C.3     1  UNL1        0.1152
      5 C         140.9211  142.8668  162.9451 C.3     1  UNL1        0.1137
      6 N         141.6302  142.6244  161.6457 N.pl3   1  UNL1       -0.2891
      7 C         142.7698  141.6510  161.5833 C.3     1  UNL1        0.1137
      8 C         143.2004  140.9201  162.8204 C.3     1  UNL1        0.1152
      9 C         141.1996  143.3553  160.4086 C.ar    1  UNL1        0.1424
     10 N         141.8390  144.6640  160.0499 N.ar    1  UNL1       -0.2284
     11 C         141.4085  145.3949  158.8128 C.ar    1  UNL1        0.1042
     12 C         140.3385  144.8172  157.9345 C.ar    1  UNL1        0.0915
     13 C         139.6992  143.5086  158.2932 C.ar    1  UNL1        0.0196
     14 C         140.1297  142.7776  159.5303 C.ar    1  UNL1        0.0891
     15 CL        139.4903  141.4690  159.8890 Cl      1  UNL1       -0.0793
     16 C         139.9079  145.5481  156.6974 C.3     1  UNL1        0.4200
     17 F         139.4773  146.2791  155.4603 F       1  UNL1       -0.1658
     18 F         141.0044  146.5499  156.9076 F       1  UNL1       -0.1658
     19 F         138.8114  144.5464  156.4872 F       1  UNL1       -0.1658
     20 C         140.9078  139.9902  166.9375 C.ar    1  UNL1        0.1432
     21 C         140.1988  140.2327  168.2369 C.ar    1  UNL1        0.0384
     22 C         140.7949  141.1589  169.2551 C.ar    1  UNL1        0.0215
     23 C         142.1000  141.8426  168.9739 C.ar    1  UNL1        0.1061
     24 C         142.8090  141.6002  167.6745 C.ar    1  UNL1        0.0259
     25 C         142.2129  140.6740  166.6563 C.ar    1  UNL1        0.0887
     26 S         142.6961  142.7689  169.9922 S.O2    1  UNL1        0.0105
     27 C         143.2922  143.6951  171.0104 C.3     1  UNL1        0.1816
     28 O         144.0118  142.7115  169.2741 O.2     1  UNL1       -0.1686
     29 O         141.3804  142.8262  170.7102 O.2     1  UNL1       -0.1686
     30 O         140.3117  139.0640  165.9193 O.3     1  UNL1       -0.4702
     31 C         138.1152  140.0704  164.9639 C.3     1  UNL1        0.0566
     32 C         138.8235  139.0016  165.7424 C.3     1  UNL1        0.2599
     33 C         138.0434  137.8703  166.3440 C.3     1  UNL1        0.4340
     34 F         137.2634  136.7392  166.9456 F       1  UNL1       -0.1664
     35 F         138.7782  136.8984  165.4692 F       1  UNL1       -0.1664
     36 F         137.3086  138.8423  167.2188 F       1  UNL1       -0.1664
@<TRIPOS>BOND
     1    31    32    1
     2    32    30    1
     3    30    20    1
     4    20    21   ar
     5    21    22   ar
     6    22    23   ar
     7    23    26    1
     8    26    27    1
     9    26    28    2
    10    26    29    2
    11    23    24   ar
    12    24    25   ar
    13    25     1    1
    14     1     2    2
    15     1     3   am
    16     3     4    1
    17     4     5    1
    18     5     6    1
    19     6     9    1
    20     9    10   ar
    21    10    11   ar
    22    11    12   ar
    23    12    16    1
    24    16    17    1
    25    16    18    1
    26    16    19    1
    27    12    13   ar
    28    13    14   ar
    29    14    15    1
    30     6     7    1
    31     7     8    1
    32    32    33    1
    33    33    34    1
    34    33    35    1
    35    33    36    1
    36    25    20   ar
    37     8     3    1
    38    14     9   ar
@<TRIPOS>MOLECULE
*****
 36 38 0 0 0
SMALL
GASTEIGER

@<TRIPOS>ATOM
      1 C         139.1645  142.2732  164.5432 C.2     1  UNL1        0.2521
      2 O         137.8990  143.0623  164.3830 O.2     1  UNL1       -0.2698
      3 N         140.1050  142.1206  163.3846 N.am    1  UNL1       -0.2725
      4 C         141.3706  141.3315  163.5449 C.3     1  UNL1        0.1152
      5 C         142.3111  141.1789  162.3864 C.3     1  UNL1        0.1137
      6 N         141.9860  141.8154  161.0676 N.pl3   1  UNL1       -0.2891
      7 C         140.7205  142.6045  160.9074 C.3     1  UNL1        0.1137
      8 C         139.7800  142.7571  162.0659 C.3     1  UNL1        0.1152
      9 C         142.9265  141.6628  159.9090 C.ar    1  UNL1        0.1424
     10 N         143.9560  142.7188  159.6346 N.ar    1  UNL1       -0.2284
     11 C         144.8965  142.5662  158.4761 C.ar    1  UNL1        0.1042
     12 C         144.8074  141.3576  157.5920 C.ar    1  UNL1        0.0915
     13 C         143.7780  140.3018  157.8664 C.ar    1  UNL1        0.0196
     14 C         142.8375  140.4544  159.0250 C.ar    1  UNL1        0.0891
     15 CL        141.8080  139.3984  159.2994 Cl      1  UNL1       -0.0793
     16 C         145.7479  141.2050  156.4334 C.3     1  UNL1        0.4200
     17 F         146.6884  141.0524  155.2749 F       1  UNL1       -0.1658
     18 F         145.1266  139.8802  156.1035 F       1  UNL1       -0.1658
     19 F         146.3693  142.5298  156.7633 F       1  UNL1       -0.1658
     20 C         138.9631  140.2699  166.1851 C.ar    1  UNL1        0.1432
     21 C         139.2882  139.6334  167.5039 C.ar    1  UNL1        0.0384
     22 C         140.1399  140.3637  168.4995 C.ar    1  UNL1        0.0215
     23 C         140.6664  141.7306  168.1764 C.ar    1  UNL1        0.1061
     24 C         140.3413  142.3670  166.8576 C.ar    1  UNL1        0.0259
     25 C         139.4896  141.6367  165.8620 C.ar    1  UNL1        0.0887
     26 S         141.5181  142.4609  169.1720 S.O2    1  UNL1        0.0105
     27 C         142.3697  143.1913  170.1676 C.3     1  UNL1        0.1816
     28 O         142.5732  141.4023  169.0460 O.2     1  UNL1       -0.1686
     29 O         140.4629  143.5196  169.2980 O.2     1  UNL1       -0.1686
     30 O         138.1114  139.5395  165.1895 O.3     1  UNL1       -0.4702
     31 C         138.3837  138.9435  162.6754 C.3     1  UNL1        0.0566
     32 C         138.7547  138.7188  164.1113 C.3     1  UNL1        0.2599
     33 C         139.7691  137.6732  164.4691 C.3     1  UNL1        0.4340
     34 F         140.7834  136.6276  164.8268 F       1  UNL1       -0.1664
     35 F         140.7348  138.2758  163.4923 F       1  UNL1       -0.1664
     36 F         138.8034  137.0705  165.4458 F       1  UNL1       -0.1664
@<TRIPOS>BOND
     1    31    32    1
     2    32    30    1
     3    30    20    1
     4    20    21   ar
     5    21    22   ar
     6    22    23   ar
     7    23    26    1
     8    26    27    1
     9    26    28    2
    10    26    29    2
    11    23    24   ar
    12    24    25   ar
    13    25     1    1
    14     1     2    2
    15     1     3   am
    16     3     4    1
    17     4     5    1
    18     5     6    1
    19     6     9    1
    20     9    10   ar
    21    10    11   ar
    22    11    12   ar
    23    12    16    1
    24    16    17    1
    25    16    18    1
    26    16    19    1
    27    12    13   ar
    28    13    14   ar
    29    14    15    1
    30     6     7    1
    31     7     8    1
    32    32    33    1
    33    33    34    1
    34    33    35    1
    35    33    36    1
    36    25    20   ar
    37     8     3    1
    38    14     9   ar
@<TRIPOS>MOLECULE
*****
 36 38 0 0 0
SMALL
GASTEIGER

@<TRIPOS>ATOM
      1 C         139.7908  139.6290  165.1198 C.2     1  UNL1        0.2521
      2 O         138.8284  138.4807  165.0491 O.2     1  UNL1       -0.2698
      3 N         139.9800  140.5234  163.9306 N.am    1  UNL1       -0.2725
      4 C         140.9425  141.6718  164.0014 C.3     1  UNL1        0.1152
      5 C         141.1318  142.5661  162.8121 C.3     1  UNL1        0.1137
      6 N         140.3585  142.3121  161.5521 N.pl3   1  UNL1       -0.2891
      7 C         139.3960  141.1638  161.4814 C.3     1  UNL1        0.1137
      8 C         139.2068  140.2695  162.6706 C.3     1  UNL1        0.1152
      9 C         140.5477  143.2065  160.3628 C.ar    1  UNL1        0.1424
     10 N         139.8701  144.5439  160.3148 N.ar    1  UNL1       -0.2284
     11 C         140.0593  145.4383  159.1256 C.ar    1  UNL1        0.1042
     12 C         140.9261  144.9952  157.9843 C.ar    1  UNL1        0.0915
     13 C         141.6037  143.6578  158.0323 C.ar    1  UNL1        0.0196
     14 C         141.4144  142.7635  159.2216 C.ar    1  UNL1        0.0891
     15 CL        142.0920  141.4260  159.2696 Cl      1  UNL1       -0.0793
     16 C         141.1154  145.8895  156.7951 C.3     1  UNL1        0.4200
     17 F         141.3046  146.7839  155.6058 F       1  UNL1       -0.1658
     18 F         142.2979  145.0715  156.3680 F       1  UNL1       -0.1658
     19 F         139.9328  146.7076  157.2221 F       1  UNL1       -0.1658
     20 C         141.8794  139.1976  166.6037 C.ar    1  UNL1        0.1432
     21 C         142.6526  139.4516  167.8637 C.ar    1  UNL1        0.0384
     22 C         142.1105  140.3911  168.8998 C.ar    1  UNL1        0.0215
     23 C         140.7952  141.0765  168.6760 C.ar    1  UNL1        0.1061
     24 C         140.0220  140.8225  167.4160 C.ar    1  UNL1        0.0259
     25 C         140.5641  139.8830  166.3799 C.ar    1  UNL1        0.0887
     26 S         140.2532  142.0160  169.7121 S.O2    1  UNL1        0.0105
     27 C         139.7111  142.9555  170.7482 C.3     1  UNL1        0.1816
     28 O         139.9902  140.8561  170.6262 O.2     1  UNL1       -0.1686
     29 O         140.5162  143.1759  168.7980 O.2     1  UNL1       -0.1686
     30 O         142.4214  138.2581  165.5676 O.3     1  UNL1       -0.4702
     31 C         144.2272  139.8659  164.6166 C.3     1  UNL1        0.0566
     32 C         143.1996  138.7943  164.4027 C.3     1  UNL1        0.2599
     33 C         142.9501  138.2590  163.0238 C.3     1  UNL1        0.4340
     34 F         142.7007  137.7236  161.6450 F       1  UNL1       -0.1664
     35 F         144.1355  139.0229  162.5127 F       1  UNL1       -0.1664
     36 F         141.7647  137.4951  163.5349 F       1  UNL1       -0.1664
@<TRIPOS>BOND
     1    31    32    1
     2    32    30    1
     3    30    20    1
     4    20    21   ar
     5    21    22   ar
     6    22    23   ar
     7    23    26    1
     8    26    27    1
     9    26    28    2
    10    26    29    2
    11    23    24   ar
    12    24    25   ar
    13    25     1    1
    14     1     2    2
    15     1     3   am
    16     3     4    1
    17     4     5    1
    18     5     6    1
    19     6     9    1
    20     9    10   ar
    21    10    11   ar
    22    11    12   ar
    23    12    16    1
    24    16    17    1
    25    16    18    1
    26    16    19    1
    27    12    13   ar
    28    13    14   ar
    29    14    15    1
    30     6     7    1
    31     7     8    1
    32    32    33    1
    33    33    34    1
    34    33    35    1
    35    33    36    1
    36    25    20   ar
    37     8     3    1
    38    14     9   ar
@<TRIPOS>MOLECULE
*****
 36 38 0 0 0
SMALL
GASTEIGER

@<TRIPOS>ATOM
      1 C         143.3272  142.1370  164.4160 C.2     1  UNL1        0.2521
      2 O         144.4927  143.0806  164.4469 O.2     1  UNL1       -0.2698
      3 N         143.0232  141.3611  163.1688 N.am    1  UNL1       -0.2725
      4 C         141.8576  140.4174  163.1379 C.3     1  UNL1        0.1152
      5 C         141.5536  139.6415  161.8907 C.3     1  UNL1        0.1137
      6 N         142.4152  139.8094  160.6743 N.pl3   1  UNL1       -0.2891
      7 C         143.5807  140.7530  160.7052 C.3     1  UNL1        0.1137
      8 C         143.8847  141.5289  161.9524 C.3     1  UNL1        0.1152
      9 C         142.1112  139.0335  159.4271 C.ar    1  UNL1        0.1424
     10 N         142.9848  137.8809  159.0291 N.ar    1  UNL1       -0.2284
     11 C         142.6808  137.1050  157.7819 C.ar    1  UNL1        0.1042
     12 C         141.5032  137.4818  156.9326 C.ar    1  UNL1        0.0915
     13 C         140.6296  138.6343  157.3305 C.ar    1  UNL1        0.0196
     14 C         140.9336  139.4102  158.5778 C.ar    1  UNL1        0.0891
     15 CL        140.0599  140.5628  158.9757 Cl      1  UNL1       -0.0793
     16 C         141.1992  136.7059  155.6853 C.3     1  UNL1        0.4200
     17 F         140.8952  135.9300  154.4381 F       1  UNL1       -0.1658
     18 F         142.6562  136.7082  155.3288 F       1  UNL1       -0.1658
     19 F         139.7421  136.7036  156.0419 F       1  UNL1       -0.1658
     20 C         141.2485  142.8270  165.8136 C.ar    1  UNL1        0.1432
     21 C         140.3870  142.6591  167.0300 C.ar    1  UNL1        0.0384
     22 C         140.7425  141.6334  168.0651 C.ar    1  UNL1        0.0215
     23 C         141.9595  140.7756  167.8839 C.ar    1  UNL1        0.1061
     24 C         142.8211  140.9434  166.6676 C.ar    1  UNL1        0.0259
     25 C         142.4656  141.9691  165.6324 C.ar    1  UNL1        0.0887
     26 S         142.3150  139.7499  168.9191 S.O2    1  UNL1        0.0105
     27 C         142.6706  138.7242  169.9543 C.3     1  UNL1        0.1816
     28 O         143.1191  138.9993  167.8992 O.2     1  UNL1       -0.1686
     29 O         141.5110  140.5005  169.9390 O.2     1  UNL1       -0.1686
     30 O         140.8930  143.8527  164.7784 O.3     1  UNL1       -0.4702
     31 C         139.5955  143.1890  162.6276 C.3     1  UNL1        0.0566
     32 C         139.6021  143.7396  164.0229 C.3     1  UNL1        0.2599
     33 C         138.3178  144.1771  164.6627 C.3     1  UNL1        0.4340
     34 F         137.0336  144.6145  165.3024 F       1  UNL1       -0.1664
     35 F         139.0267  145.3407  165.2900 F       1  UNL1       -0.1664
     36 F         137.6090  143.0135  164.0354 F       1  UNL1       -0.1664
@<TRIPOS>BOND
     1    31    32    1
     2    32    30    1
     3    30    20    1
     4    20    21   ar
     5    21    22   ar
     6    22    23   ar
     7    23    26    1
     8    26    27    1
     9    26    28    2
    10    26    29    2
    11    23    24   ar
    12    24    25   ar
    13    25     1    1
    14     1     2    2
    15     1     3   am
    16     3     4    1
    17     4     5    1
    18     5     6    1
    19     6     9    1
    20     9    10   ar
    21    10    11   ar
    22    11    12   ar
    23    12    16    1
    24    16    17    1
    25    16    18    1
    26    16    19    1
    27    12    13   ar
    28    13    14   ar
    29    14    15    1
    30     6     7    1
    31     7     8    1
    32    32    33    1
    33    33    34    1
    34    33    35    1
    35    33    36    1
    36    25    20   ar
    37     8     3    1
    38    14     9   ar
@<TRIPOS>MOLECULE
*****
 36 38 0 0 0
SMALL
GASTEIGER

@<TRIPOS>ATOM
      1 C         138.3870  140.3039  160.7606 C.2     1  UNL1        0.2521
      2 O         137.1026  139.5758  160.4959 O.2     1  UNL1       -0.2698
      3 N         139.0517  140.1893  162.1004 N.am    1  UNL1       -0.2725
      4 C         140.3361  140.9175  162.3652 C.3     1  UNL1        0.1152
      5 C         141.0008  140.8029  163.7050 C.3     1  UNL1        0.1137
      6 N         140.3811  139.9601  164.7800 N.pl3   1  UNL1       -0.2891
      7 C         139.0967  139.2320  164.5153 C.3     1  UNL1        0.1137
      8 C         138.4320  139.3466  163.1755 C.3     1  UNL1        0.1152
      9 C         141.0458  139.8455  166.1198 C.ar    1  UNL1        0.1424
     10 N         140.4379  140.5124  167.3181 N.ar    1  UNL1       -0.2284
     11 C         141.1025  140.3978  168.6579 C.ar    1  UNL1        0.1042
     12 C         142.3751  139.6163  168.7994 C.ar    1  UNL1        0.0915
     13 C         142.9830  138.9495  167.6012 C.ar    1  UNL1        0.0196
     14 C         142.3183  139.0641  166.2614 C.ar    1  UNL1        0.0891
     15 CL        142.9262  138.3973  165.0631 Cl      1  UNL1       -0.0793
     16 C         143.0398  139.5017  170.1392 C.3     1  UNL1        0.4200
     17 F         143.7045  139.3871  171.4790 F       1  UNL1       -0.1658
     18 F         142.6094  138.0677  170.2301 F       1  UNL1       -0.1658
     19 F         143.4703  140.9358  170.0483 F       1  UNL1       -0.1658
     20 C         138.8174  142.6346  159.6963 C.ar    1  UNL1        0.1432
     21 C         139.4371  143.4773  158.6213 C.ar    1  UNL1        0.0384
     22 C         140.2463  142.8321  157.5355 C.ar    1  UNL1        0.0215
     23 C         140.4357  141.3442  157.5247 C.ar    1  UNL1        0.1061
     24 C         139.8159  140.5015  158.5998 C.ar    1  UNL1        0.0259
     25 C         139.0068  141.1467  159.6856 C.ar    1  UNL1        0.0887
     26 S         141.2448  140.6989  156.4390 S.O2    1  UNL1        0.0105
     27 C         142.0540  140.0537  155.3532 C.3     1  UNL1        0.1816
     28 O         142.5079  141.1151  157.1329 O.2     1  UNL1       -0.1686
     29 O         139.9818  140.2828  155.7450 O.2     1  UNL1       -0.1686
     30 O         138.0082  143.2799  160.7821 O.3     1  UNL1       -0.4702
     31 C         140.0181  144.5850  161.7856 C.3     1  UNL1        0.0566
     32 C         138.6958  143.8993  161.9626 C.3     1  UNL1        0.2599
     33 C         138.0611  143.8330  163.3201 C.3     1  UNL1        0.4340
     34 F         137.4264  143.7666  164.6776 F       1  UNL1       -0.1664
     35 F         138.9181  144.9762  163.7767 F       1  UNL1       -0.1664
     36 F         137.2041  142.6897  162.8635 F       1  UNL1       -0.1664
@<TRIPOS>BOND
     1    31    32    1
     2    32    30    1
     3    30    20    1
     4    20    21   ar
     5    21    22   ar
     6    22    23   ar
     7    23    26    1
     8    26    27    1
     9    26    28    2
    10    26    29    2
    11    23    24   ar
    12    24    25   ar
    13    25     1    1
    14     1     2    2
    15     1     3   am
    16     3     4    1
    17     4     5    1
    18     5     6    1
    19     6     9    1
    20     9    10   ar
    21    10    11   ar
    22    11    12   ar
    23    12    16    1
    24    16    17    1
    25    16    18    1
    26    16    19    1
    27    12    13   ar
    28    13    14   ar
    29    14    15    1
    30     6     7    1
    31     7     8    1
    32    32    33    1
    33    33    34    1
    34    33    35    1
    35    33    36    1
    36    25    20   ar
    37     8     3    1
    38    14     9   ar
@<TRIPOS>MOLECULE
*****
 36 38 0 0 0
SMALL
GASTEIGER

@<TRIPOS>ATOM
      1 C         138.6471  140.2099  157.5130 C.2     1  UNL1        0.2521
      2 O         138.9778  138.9863  156.7108 O.2     1  UNL1       -0.2698
      3 N         138.7778  140.1851  159.0071 N.am    1  UNL1       -0.2725
      4 C         138.4470  141.4087  159.8093 C.3     1  UNL1        0.1152
      5 C         138.5777  141.3839  161.3034 C.3     1  UNL1        0.1137
      6 N         139.0391  140.1355  161.9953 N.pl3   1  UNL1       -0.2891
      7 C         139.3698  138.9119  161.1931 C.3     1  UNL1        0.1137
      8 C         139.2391  138.9367  159.6990 C.3     1  UNL1        0.1152
      9 C         139.1697  140.1107  163.4894 C.ar    1  UNL1        0.1424
     10 N         138.0609  139.5502  164.3300 N.ar    1  UNL1       -0.2284
     11 C         138.1916  139.5254  165.8241 C.ar    1  UNL1        0.1042
     12 C         139.4310  140.0611  166.4776 C.ar    1  UNL1        0.0915
     13 C         140.5397  140.6215  165.6370 C.ar    1  UNL1        0.0196
     14 C         140.4090  140.6463  164.1429 C.ar    1  UNL1        0.0891
     15 CL        141.5178  141.2068  163.3023 Cl      1  UNL1       -0.0793
     16 C         139.5617  140.0363  167.9717 C.3     1  UNL1        0.4200
     17 F         139.6923  140.0115  169.4658 F       1  UNL1       -0.1658
     18 F         140.8533  140.7923  167.8713 F       1  UNL1       -0.1658
     19 F         138.2701  139.2802  168.0721 F       1  UNL1       -0.1658
     20 C         136.7417  141.6193  156.4485 C.ar    1  UNL1        0.1432
     21 C         136.2804  142.8676  155.7566 C.ar    1  UNL1        0.0384
     22 C         137.2631  143.9550  155.4374 C.ar    1  UNL1        0.0215
     23 C         138.7071  143.7941  155.8101 C.ar    1  UNL1        0.1061
     24 C         139.1684  142.5457  156.5019 C.ar    1  UNL1        0.0259
     25 C         138.1857  141.4583  156.8211 C.ar    1  UNL1        0.0887
     26 S         139.6898  144.8815  155.4909 S.O2    1  UNL1        0.0105
     27 C         140.6724  145.9689  155.1717 C.3     1  UNL1        0.1816
     28 O         138.5706  145.8792  155.4446 O.2     1  UNL1       -0.1686
     29 O         140.8089  143.8838  155.5372 O.2     1  UNL1       -0.1686
     30 O         135.7590  140.5318  156.7677 O.3     1  UNL1       -0.4702
     31 C         135.2372  139.6614  154.3760 C.3     1  UNL1        0.0566
     32 C         134.7658  140.0913  155.7336 C.3     1  UNL1        0.2599
     33 C         133.3011  140.0807  156.0570 C.3     1  UNL1        0.4340
     34 F         131.8364  140.0701  156.3804 F       1  UNL1       -0.1664
     35 F         133.3777  138.6127  156.3557 F       1  UNL1       -0.1664
     36 F         133.2245  141.5486  155.7583 F       1  UNL1       -0.1664
@<TRIPOS>BOND
     1    31    32    1
     2    32    30    1
     3    30    20    1
     4    20    21   ar
     5    21    22   ar
     6    22    23   ar
     7    23    26    1
     8    26    27    1
     9    26    28    2
    10    26    29    2
    11    23    24   ar
    12    24    25   ar
    13    25     1    1
    14     1     2    2
    15     1     3   am
    16     3     4    1
    17     4     5    1
    18     5     6    1
    19     6     9    1
    20     9    10   ar
    21    10    11   ar
    22    11    12   ar
    23    12    16    1
    24    16    17    1
    25    16    18    1
    26    16    19    1
    27    12    13   ar
    28    13    14   ar
    29    14    15    1
    30     6     7    1
    31     7     8    1
    32    32    33    1
    33    33    34    1
    34    33    35    1
    35    33    36    1
    36    25    20   ar
    37     8     3    1
    38    14     9   ar
@<TRIPOS>MOLECULE
*****
 36 38 0 0 0
SMALL
GASTEIGER

@<TRIPOS>ATOM
      1 C         143.1286  139.5410  158.9934 C.2     1  UNL1        0.2521
      2 O         144.3987  139.8869  158.2743 O.2     1  UNL1       -0.2698
      3 N         143.0618  139.6424  160.4885 N.am    1  UNL1       -0.2725
      4 C         141.7916  139.2964  161.2076 C.3     1  UNL1        0.1152
      5 C         141.7247  139.3978  162.7027 C.3     1  UNL1        0.1137
      6 N         142.9280  139.8451  163.4787 N.pl3   1  UNL1       -0.2891
      7 C         144.1981  140.1911  162.7596 C.3     1  UNL1        0.1137
      8 C         144.2650  140.0897  161.2645 C.3     1  UNL1        0.1152
      9 C         142.8611  139.9465  164.9737 C.ar    1  UNL1        0.1424
     10 N         143.1167  138.7345  165.8198 N.ar    1  UNL1       -0.2284
     11 C         143.0498  138.8359  167.3149 C.ar    1  UNL1        0.1042
     12 C         142.7274  140.1493  167.9639 C.ar    1  UNL1        0.0915
     13 C         142.4718  141.3612  167.1178 C.ar    1  UNL1        0.0196
     14 C         142.5387  141.2598  165.6227 C.ar    1  UNL1        0.0891
     15 CL        142.2831  142.4718  164.7767 Cl      1  UNL1       -0.0793
     16 C         142.6605  140.2506  169.4590 C.3     1  UNL1        0.4200
     17 F         142.5936  140.3520  170.9541 F       1  UNL1       -0.1658
     18 F         142.9958  141.7103  169.3750 F       1  UNL1       -0.1658
     19 F         142.3252  138.7910  169.5429 F       1  UNL1       -0.1658
     20 C         141.8797  137.7122  157.6348 C.ar    1  UNL1        0.1432
     21 C         140.6764  137.2650  156.8589 C.ar    1  UNL1        0.0384
     22 C         139.5188  138.1991  156.6657 C.ar    1  UNL1        0.0215
     23 C         139.5645  139.5805  157.2484 C.ar    1  UNL1        0.1061
     24 C         140.7677  140.0278  158.0243 C.ar    1  UNL1        0.0259
     25 C         141.9253  139.0936  158.2175 C.ar    1  UNL1        0.0887
     26 S         138.4069  140.5146  157.0551 S.O2    1  UNL1        0.0105
     27 C         137.2492  141.4488  156.8619 C.3     1  UNL1        0.1816
     28 O         139.0450  141.4989  157.9900 O.2     1  UNL1       -0.1686
     29 O         137.7687  139.5304  156.1203 O.2     1  UNL1       -0.1686
     30 O         143.0373  136.7781  157.8280 O.3     1  UNL1       -0.4702
     31 C         144.0805  136.2653  155.5045 C.3     1  UNL1        0.0566
     32 C         143.3952  135.7950  156.7532 C.3     1  UNL1        0.2599
     33 C         143.0678  134.3414  156.9270 C.3     1  UNL1        0.4340
     34 F         142.7405  132.8880  157.1008 F       1  UNL1       -0.1664
     35 F         142.7563  134.2366  155.4635 F       1  UNL1       -0.1664
     36 F         143.3794  134.4463  158.3905 F       1  UNL1       -0.1664
@<TRIPOS>BOND
     1    31    32    1
     2    32    30    1
     3    30    20    1
     4    20    21   ar
     5    21    22   ar
     6    22    23   ar
     7    23    26    1
     8    26    27    1
     9    26    28    2
    10    26    29    2
    11    23    24   ar
    12    24    25   ar
    13    25     1    1
    14     1     2    2
    15     1     3   am
    16     3     4    1
    17     4     5    1
    18     5     6    1
    19     6     9    1
    20     9    10   ar
    21    10    11   ar
    22    11    12   ar
    23    12    16    1
    24    16    17    1
    25    16    18    1
    26    16    19    1
    27    12    13   ar
    28    13    14   ar
    29    14    15    1
    30     6     7    1
    31     7     8    1
    32    32    33    1
    33    33    34    1
    34    33    35    1
    35    33    36    1
    36    25    20   ar
    37     8     3    1
    38    14     9   ar
@<TRIPOS>MOLECULE
*****
 36 38 0 0 0
SMALL
GASTEIGER

@<TRIPOS>ATOM
      1 C         142.5821  143.2026  162.1894 C.2     1  UNL1        0.2521
      2 O         143.7557  144.0931  161.9076 O.2     1  UNL1       -0.2698
      3 N         141.6542  142.8103  161.0780 N.am    1  UNL1       -0.2725
      4 C         140.4805  141.9198  161.3599 C.3     1  UNL1        0.1152
      5 C         139.5527  141.5275  160.2485 C.3     1  UNL1        0.1137
      6 N         139.7985  142.0259  158.8552 N.pl3   1  UNL1       -0.2891
      7 C         140.9722  142.9164  158.5733 C.3     1  UNL1        0.1137
      8 C         141.9000  143.3086  159.6847 C.3     1  UNL1        0.1152
      9 C         138.8707  141.6336  157.7438 C.ar    1  UNL1        0.1424
     10 N         137.6799  142.4881  157.4241 N.ar    1  UNL1       -0.2284
     11 C         136.7521  142.0959  156.3127 C.ar    1  UNL1        0.1042
     12 C         137.0150  140.8492  155.5210 C.ar    1  UNL1        0.0915
     13 C         138.2057  139.9948  155.8407 C.ar    1  UNL1        0.0196
     14 C         139.1335  140.3870  156.9521 C.ar    1  UNL1        0.0891
     15 CL        140.3243  139.5326  157.2718 Cl      1  UNL1       -0.0793
     16 C         136.0871  140.4569  154.4095 C.3     1  UNL1        0.4200
     17 F         135.1593  140.0647  153.2981 F       1  UNL1       -0.1658
     18 F         136.4599  139.0174  154.6064 F       1  UNL1       -0.1658
     19 F         135.7144  141.8965  154.2127 F       1  UNL1       -0.1658
     20 C         141.5566  143.5421  164.5523 C.ar    1  UNL1        0.1432
     21 C         141.3108  143.0437  165.9455 C.ar    1  UNL1        0.0384
     22 C         141.8447  141.7075  166.3693 C.ar    1  UNL1        0.0215
     23 C         142.6244  140.8697  165.3997 C.ar    1  UNL1        0.1061
     24 C         142.8702  141.3680  164.0065 C.ar    1  UNL1        0.0259
     25 C         142.3363  142.7042  163.5828 C.ar    1  UNL1        0.0887
     26 S         143.1583  139.5335  165.8234 S.O2    1  UNL1        0.0105
     27 C         143.6921  138.1973  166.2472 C.3     1  UNL1        0.1816
     28 O         142.4950  139.6921  167.1594 O.2     1  UNL1       -0.1686
     29 O         143.8215  139.3749  164.4875 O.2     1  UNL1       -0.1686
     30 O         141.0227  144.8783  164.1286 O.3     1  UNL1       -0.4702
     31 C         139.5142  145.5794  162.1329 C.3     1  UNL1        0.0566
     32 C         139.6650  144.9780  163.4987 C.3     1  UNL1        0.2599
     33 C         138.4580  144.4764  164.2348 C.3     1  UNL1        0.4340
     34 F         137.2511  143.9747  164.9707 F       1  UNL1       -0.1664
     35 F         138.8258  145.3245  165.4160 F       1  UNL1       -0.1664
     36 F         138.0903  143.6282  163.0536 F       1  UNL1       -0.1664
@<TRIPOS>BOND
     1    31    32    1
     2    32    30    1
     3    30    20    1
     4    20    21   ar
     5    21    22   ar
     6    22    23   ar
     7    23    26    1
     8    26    27    1
     9    26    28    2
    10    26    29    2
    11    23    24   ar
    12    24    25   ar
    13    25     1    1
    14     1     2    2
    15     1     3   am
    16     3     4    1
    17     4     5    1
    18     5     6    1
    19     6     9    1
    20     9    10   ar
    21    10    11   ar
    22    11    12   ar
    23    12    16    1
    24    16    17    1
    25    16    18    1
    26    16    19    1
    27    12    13   ar
    28    13    14   ar
    29    14    15    1
    30     6     7    1
    31     7     8    1
    32    32    33    1
    33    33    34    1
    34    33    35    1
    35    33    36    1
    36    25    20   ar
    37     8     3    1
    38    14     9   ar
@<TRIPOS>MOLECULE
*****
 36 38 0 0 0
SMALL
GASTEIGER

@<TRIPOS>ATOM
      1 C         140.1570  144.4565  160.3294 C.2     1  UNL1        0.2521
      2 O         139.8867  145.9103  160.0779 O.2     1  UNL1       -0.2698
      3 N         140.4396  143.9761  161.7220 N.am    1  UNL1       -0.2725
      4 C         140.7099  142.5222  161.9734 C.3     1  UNL1        0.1152
      5 C         140.9926  142.0418  163.3660 C.3     1  UNL1        0.1137
      6 N         141.0050  143.0153  164.5071 N.pl3   1  UNL1       -0.2891
      7 C         140.7347  144.4691  164.2557 C.3     1  UNL1        0.1137
      8 C         140.4520  144.9495  162.8631 C.3     1  UNL1        0.1152
      9 C         141.2876  142.5349  165.8997 C.ar    1  UNL1        0.1424
     10 N         140.1587  142.1004  166.7868 N.ar    1  UNL1       -0.2284
     11 C         140.4414  141.6200  168.1794 C.ar    1  UNL1        0.1042
     12 C         141.8530  141.5740  168.6849 C.ar    1  UNL1        0.0915
     13 C         142.9818  142.0084  167.7978 C.ar    1  UNL1        0.0196
     14 C         142.6991  142.4889  166.4052 C.ar    1  UNL1        0.0891
     15 CL        143.8280  142.9233  165.5181 Cl      1  UNL1       -0.0793
     16 C         142.1356  141.0936  170.0775 C.3     1  UNL1        0.4200
     17 F         142.4183  140.6132  171.4701 F       1  UNL1       -0.1658
     18 F         143.6087  141.1955  169.8136 F       1  UNL1       -0.1658
     19 F         140.6625  140.9917  170.3413 F       1  UNL1       -0.1658
     20 C         141.4345  143.0552  158.5533 C.ar    1  UNL1        0.1432
     21 C         141.4221  142.0818  157.4122 C.ar    1  UNL1        0.0384
     22 C         140.1198  141.5361  156.9060 C.ar    1  UNL1        0.0215
     23 C         138.8299  141.9639  157.5409 C.ar    1  UNL1        0.1061
     24 C         138.8423  142.9373  158.6820 C.ar    1  UNL1        0.0259
     25 C         140.1446  143.4830  159.1882 C.ar    1  UNL1        0.0887
     26 S         137.5276  141.4182  157.0346 S.O2    1  UNL1        0.0105
     27 C         136.2253  140.8725  156.5284 C.3     1  UNL1        0.1816
     28 O         137.0557  142.8124  156.7458 O.2     1  UNL1       -0.1686
     29 O         137.9995  140.0240  157.3235 O.2     1  UNL1       -0.1686
     30 O         142.7368  143.6009  159.0595 O.3     1  UNL1       -0.4702
     31 C         144.9736  142.5611  158.2437 C.3     1  UNL1        0.0566
     32 C         143.8993  142.6800  159.2838 C.3     1  UNL1        0.2599
     33 C         143.9877  141.8779  160.5483 C.3     1  UNL1        0.4340
     34 F         144.0761  141.0759  161.8128 F       1  UNL1       -0.1664
     35 F         143.8346  140.6131  159.7568 F       1  UNL1       -0.1664
     36 F         144.1409  143.1428  161.3399 F       1  UNL1       -0.1664
@<TRIPOS>BOND
     1    31    32    1
     2    32    30    1
     3    30    20    1
     4    20    21   ar
     5    21    22   ar
     6    22    23   ar
     7    23    26    1
     8    26    27    1
     9    26    28    2
    10    26    29    2
    11    23    24   ar
    12    24    25   ar
    13    25     1    1
    14     1     2    2
    15     1     3   am
    16     3     4    1
    17     4     5    1
    18     5     6    1
    19     6     9    1
    20     9    10   ar
    21    10    11   ar
    22    11    12   ar
    23    12    16    1
    24    16    17    1
    25    16    18    1
    26    16    19    1
    27    12    13   ar
    28    13    14   ar
    29    14    15    1
    30     6     7    1
    31     7     8    1
    32    32    33    1
    33    33    34    1
    34    33    35    1
    35    33    36    1
    36    25    20   ar
    37     8     3    1
    38    14     9   ar
