@<TRIPOS>MOLECULE
*****
 41 45 0 0 0
SMALL
GASTEIGER

@<TRIPOS>ATOM
      1 N         138.7701  143.8816  162.4833 N.ar    1  UNL1       -0.2399
      2 C         138.7050  142.4067  162.2181 C.ar    1  UNL1        0.2819
      3 O         137.9673  141.5064  163.1643 O.2     1  UNL1       -0.2652
      4 C         139.3777  141.8320  161.0068 C.ar    1  UNL1        0.1349
      5 C         140.1153  142.7323  160.0606 C.ar    1  UNL1        0.0966
      6 C         140.6770  141.8851  158.9575 C.ar    1  UNL1        0.1156
      7 C         140.2863  140.4613  159.2219 C.ar    1  UNL1        0.1240
      8 N         139.4833  140.4284  160.4885 N.ar    1  UNL1       -0.3063
      9 N         140.1804  144.2072  160.3258 N.ar    1  UNL1       -0.2770
     10 C         140.9181  145.1076  159.3796 C.3     1  UNL1        0.1351
     11 C         139.5077  144.7819  161.5372 C.ar    1  UNL1        0.3343
     12 O         139.5727  146.2569  161.8023 O.2     1  UNL1       -0.2462
     13 N         140.6372  139.2779  158.3695 N.pl3   1  UNL1       -0.2926
     14 C         142.0500  138.7758  158.3282 C.3     1  UNL1        0.0922
     15 C         142.4007  137.5924  157.4757 C.3     1  UNL1        0.0229
     16 C         141.3387  136.9112  156.6646 C.3     1  UNL1        0.0190
     17 C         139.9258  137.4133  156.7059 C.3     1  UNL1        0.0709
     18 N         138.8637  136.7322  155.8948 N.3     1  UNL1       -0.3208
     19 C         139.5751  138.5967  157.5583 C.3     1  UNL1        0.1075
     20 H         137.9702  137.2017  156.0417 H       1  UNL1        0.1189
     21 H         138.7873  135.7573  156.1848 H       1  UNL1        0.1189
     22 C         141.4869  142.3757  157.7942 C.1     1  UNL1        0.1047
     23 N         142.2969  142.8663  156.6309 N.1     1  UNL1       -0.1907
     24 C         138.0973  144.4562  163.6947 C.3     1  UNL1        0.1826
     25 C         138.8433  144.5509  164.9926 C.2     1  UNL1        0.1961
     26 O         138.3570  145.4723  166.0718 O.2     1  UNL1       -0.2893
     27 C         142.6083  143.3099  164.8071 C.ar    1  UNL1        0.1388
     28 C         142.5401  142.0705  165.6491 C.ar    1  UNL1        0.0369
     29 C         141.2397  141.6578  166.2723 C.ar    1  UNL1        0.0032
     30 C         140.0073  142.4845  166.0536 C.ar    1  UNL1        0.0031
     31 C         140.0755  143.7241  165.2114 C.ar    1  UNL1        0.0397
     32 C         141.3760  144.1367  164.5882 C.ar    1  UNL1        0.0398
     33 C         143.9122  144.5101  162.9072 C.3     1  UNL1        0.2525
     34 O         143.9088  143.7226  164.1838 O.3     1  UNL1       -0.4714
     35 C         138.8902  139.2065  161.1249 C.3     1  UNL1        0.1341
     36 C         139.5890  138.5463  162.2763 C.ar    1  UNL1        0.0004
     37 C         138.8196  138.1812  163.5111 C.ar    1  UNL1       -0.0024
     38 C         139.5185  137.5210  164.6625 C.ar    1  UNL1       -0.0003
     39 C         140.9869  137.2259  164.5791 C.ar    1  UNL1       -0.0000
     40 C         141.7562  137.5909  163.3444 C.ar    1  UNL1       -0.0003
     41 C         141.0574  138.2511  162.1929 C.ar    1  UNL1       -0.0024
@<TRIPOS>BOND
     1    33    34    1
     2    34    27    1
     3    27    28   ar
     4    28    29   ar
     5    29    30   ar
     6    30    31   ar
     7    31    25    1
     8    25    26    2
     9    25    24    1
    10    24     1    1
    11     1     2   ar
    12     2     3    2
    13     2     4   ar
    14     4     5   ar
    15     5     6   ar
    16     6    22    1
    17    22    23    3
    18     6     7   ar
    19     7    13    1
    20    13    14    1
    21    14    15    1
    22    15    16    1
    23    16    17    1
    24    17    18    1
    25    17    19    1
    26     7     8   ar
    27     8    35    1
    28    35    36    1
    29    36    37   ar
    30    37    38   ar
    31    38    39   ar
    32    39    40   ar
    33    40    41   ar
    34     5     9   ar
    35     9    10    1
    36     9    11   ar
    37    11    12    2
    38    31    32   ar
    39    32    27   ar
    40    11     1   ar
    41     8     4   ar
    42    41    36   ar
    43    19    13    1
    44    18    20    1
    45    18    21    1
@<TRIPOS>MOLECULE
*****
 41 45 0 0 0
SMALL
GASTEIGER

@<TRIPOS>ATOM
      1 N         141.6162  139.1958  161.9981 N.ar    1  UNL1       -0.2399
      2 C         142.1609  140.0230  163.1246 C.ar    1  UNL1        0.2819
      3 O         143.4069  140.8340  162.9253 O.2     1  UNL1       -0.2652
      4 C         141.4596  140.0392  164.4505 C.ar    1  UNL1        0.1349
      5 C         140.2136  139.2282  164.6498 C.ar    1  UNL1        0.0966
      6 C         139.7425  139.4406  166.0580 C.ar    1  UNL1        0.1156
      7 C         140.6974  140.3829  166.7289 C.ar    1  UNL1        0.1240
      8 N         141.7587  140.7528  165.7355 N.ar    1  UNL1       -0.3063
      9 N         139.6688  138.4010  163.5233 N.ar    1  UNL1       -0.2770
     10 C         138.4228  137.5900  163.7225 C.3     1  UNL1        0.1351
     11 C         140.3702  138.3849  162.1974 C.ar    1  UNL1        0.3343
     12 O         139.8255  137.5577  161.0708 O.2     1  UNL1       -0.2462
     13 N         140.6070  140.8698  168.1448 N.pl3   1  UNL1       -0.2926
     14 C         140.7138  139.8963  169.2810 C.3     1  UNL1        0.0922
     15 C         140.6234  140.3833  170.6969 C.3     1  UNL1        0.0229
     16 C         140.4263  141.8437  170.9766 C.3     1  UNL1        0.0190
     17 C         140.3195  142.8172  169.8405 C.3     1  UNL1        0.0709
     18 N         140.1224  144.2777  170.1201 N.3     1  UNL1       -0.3208
     19 C         140.4099  142.3302  168.4246 C.3     1  UNL1        0.1075
     20 H         140.0716  144.7888  169.2389 H       1  UNL1        0.1189
     21 H         140.9063  144.6272  170.6712 H       1  UNL1        0.1189
     22 C         138.5295  138.8198  166.6850 C.1     1  UNL1        0.1047
     23 N         137.3165  138.1990  167.3121 N.1     1  UNL1       -0.1907
     24 C         142.3176  139.1797  160.6722 C.3     1  UNL1        0.1826
     25 C         141.9048  140.1371  159.5938 C.2     1  UNL1        0.1961
     26 O         141.9818  139.7236  158.1539 O.2     1  UNL1       -0.2893
     27 C         139.5127  143.0719  160.7832 C.ar    1  UNL1        0.1388
     28 C         140.4353  144.2499  160.6779 C.ar    1  UNL1        0.0369
     29 C         141.8476  144.0570  160.2112 C.ar    1  UNL1        0.0032
     30 C         142.3376  142.6861  159.8498 C.ar    1  UNL1        0.0031
     31 C         141.4149  141.5080  159.9551 C.ar    1  UNL1        0.0397
     32 C         140.0025  141.7010  160.4218 C.ar    1  UNL1        0.0398
     33 C         137.8254  143.6254  162.6797 C.3     1  UNL1        0.2525
     34 O         138.1002  143.2648  161.2499 O.3     1  UNL1       -0.4714
     35 C         142.9157  141.6746  165.9835 C.3     1  UNL1        0.1341
     36 C         142.9840  142.9983  165.2813 C.ar    1  UNL1        0.0004
     37 C         141.7615  143.5587  164.6168 C.ar    1  UNL1       -0.0024
     38 C         141.8297  144.8824  163.9146 C.ar    1  UNL1       -0.0003
     39 C         143.1204  145.6459  163.8770 C.ar    1  UNL1       -0.0000
     40 C         144.3428  145.0855  164.5414 C.ar    1  UNL1       -0.0003
     41 C         144.2747  143.7617  165.2436 C.ar    1  UNL1       -0.0024
@<TRIPOS>BOND
     1    33    34    1
     2    34    27    1
     3    27    28   ar
     4    28    29   ar
     5    29    30   ar
     6    30    31   ar
     7    31    25    1
     8    25    26    2
     9    25    24    1
    10    24     1    1
    11     1     2   ar
    12     2     3    2
    13     2     4   ar
    14     4     5   ar
    15     5     6   ar
    16     6    22    1
    17    22    23    3
    18     6     7   ar
    19     7    13    1
    20    13    14    1
    21    14    15    1
    22    15    16    1
    23    16    17    1
    24    17    18    1
    25    17    19    1
    26     7     8   ar
    27     8    35    1
    28    35    36    1
    29    36    37   ar
    30    37    38   ar
    31    38    39   ar
    32    39    40   ar
    33    40    41   ar
    34     5     9   ar
    35     9    10    1
    36     9    11   ar
    37    11    12    2
    38    31    32   ar
    39    32    27   ar
    40    11     1   ar
    41     8     4   ar
    42    41    36   ar
    43    19    13    1
    44    18    20    1
    45    18    21    1
@<TRIPOS>MOLECULE
*****
 41 45 0 0 0
SMALL
GASTEIGER

@<TRIPOS>ATOM
      1 N         140.5484  143.2277  161.0394 N.ar    1  UNL1       -0.2399
      2 C         139.8900  142.6973  162.2784 C.ar    1  UNL1        0.2819
      3 O         138.4871  142.1702  162.2153 O.2     1  UNL1       -0.2652
      4 C         140.6345  142.6941  163.5806 C.ar    1  UNL1        0.1349
      5 C         142.0374  143.2212  163.6438 C.ar    1  UNL1        0.0966
      6 C         142.5183  143.0911  165.0586 C.ar    1  UNL1        0.1156
      7 C         141.4125  142.4835  165.8699 C.ar    1  UNL1        0.1240
      8 N         140.2483  142.2382  164.9565 N.ar    1  UNL1       -0.3063
      9 N         142.6958  143.7516  162.4047 N.ar    1  UNL1       -0.2770
     10 C         144.0988  144.2787  162.4678 C.3     1  UNL1        0.1351
     11 C         141.9512  143.7548  161.1025 C.ar    1  UNL1        0.3343
     12 O         142.6096  144.2852  159.8634 O.2     1  UNL1       -0.2462
     13 N         141.4623  142.1754  167.3371 N.pl3   1  UNL1       -0.2926
     14 C         142.3774  141.1021  167.8475 C.3     1  UNL1        0.0922
     15 C         142.4271  140.7941  169.3147 C.3     1  UNL1        0.0229
     16 C         141.5616  141.5593  170.2715 C.3     1  UNL1        0.0190
     17 C         140.6465  142.6325  169.7611 C.3     1  UNL1        0.0709
     18 N         139.7810  143.3978  170.7178 N.3     1  UNL1       -0.3208
     19 C         140.5968  142.9406  168.2939 C.3     1  UNL1        0.1075
     20 H         139.2277  144.0825  170.2026 H       1  UNL1        0.1189
     21 H         140.3692  143.8786  171.3984 H       1  UNL1        0.1189
     22 C         143.8679  143.4972  165.5720 C.1     1  UNL1        0.1047
     23 N         145.2175  143.9033  166.0855 N.1     1  UNL1       -0.1907
     24 C         139.8038  143.2310  159.7372 C.3     1  UNL1        0.1826
     25 C         139.7286  141.9798  158.9132 C.2     1  UNL1        0.1961
     26 O         139.2400  142.0430  157.4964 O.2     1  UNL1       -0.2893
     27 C         142.0093  138.9951  160.1937 C.ar    1  UNL1        0.1388
     28 C         140.9686  138.0366  160.6918 C.ar    1  UNL1        0.0369
     29 C         139.5146  138.3925  160.5970 C.ar    1  UNL1        0.0032
     30 C         139.1011  139.7068  160.0042 C.ar    1  UNL1        0.0031
     31 C         140.1419  140.6654  159.5061 C.ar    1  UNL1        0.0397
     32 C         141.5960  140.3095  159.6009 C.ar    1  UNL1        0.0398
     33 C         144.0247  138.1146  161.5768 C.3     1  UNL1        0.2525
     34 O         143.4634  138.6392  160.2885 O.3     1  UNL1       -0.4714
     35 C         138.9294  141.6416  165.3498 C.3     1  UNL1        0.1341
     36 C         138.7705  140.1516  165.4170 C.ar    1  UNL1        0.0004
     37 C         138.0285  139.5273  166.5615 C.ar    1  UNL1       -0.0024
     38 C         137.8695  138.0373  166.6287 C.ar    1  UNL1       -0.0003
     39 C         138.4525  137.1715  165.5513 C.ar    1  UNL1       -0.0000
     40 C         139.1945  137.7957  164.4070 C.ar    1  UNL1       -0.0003
     41 C         139.3535  139.2858  164.3397 C.ar    1  UNL1       -0.0024
@<TRIPOS>BOND
     1    33    34    1
     2    34    27    1
     3    27    28   ar
     4    28    29   ar
     5    29    30   ar
     6    30    31   ar
     7    31    25    1
     8    25    26    2
     9    25    24    1
    10    24     1    1
    11     1     2   ar
    12     2     3    2
    13     2     4   ar
    14     4     5   ar
    15     5     6   ar
    16     6    22    1
    17    22    23    3
    18     6     7   ar
    19     7    13    1
    20    13    14    1
    21    14    15    1
    22    15    16    1
    23    16    17    1
    24    17    18    1
    25    17    19    1
    26     7     8   ar
    27     8    35    1
    28    35    36    1
    29    36    37   ar
    30    37    38   ar
    31    38    39   ar
    32    39    40   ar
    33    40    41   ar
    34     5     9   ar
    35     9    10    1
    36     9    11   ar
    37    11    12    2
    38    31    32   ar
    39    32    27   ar
    40    11     1   ar
    41     8     4   ar
    42    41    36   ar
    43    19    13    1
    44    18    20    1
    45    18    21    1
@<TRIPOS>MOLECULE
*****
 41 45 0 0 0
SMALL
GASTEIGER

@<TRIPOS>ATOM
      1 N         141.0964  143.5636  162.6927 N.ar    1  UNL1       -0.2399
      2 C         141.4019  142.1201  162.4228 C.ar    1  UNL1        0.2819
      3 O         141.8375  141.2234  163.5435 O.2     1  UNL1       -0.2652
      4 C         141.2717  141.5733  161.0321 C.ar    1  UNL1        0.1349
      5 C         140.8360  142.4701  159.9113 C.ar    1  UNL1        0.0966
      6 C         140.7976  141.6543  158.6531 C.ar    1  UNL1        0.1156
      7 C         141.2095  140.2534  158.9962 C.ar    1  UNL1        0.1240
      8 N         141.5025  140.2033  160.4665 N.ar    1  UNL1       -0.3063
      9 N         140.5305  143.9136  160.1813 N.ar    1  UNL1       -0.2770
     10 C         140.0948  144.8104  159.0606 C.3     1  UNL1        0.1351
     11 C         140.6607  144.4603  161.5721 C.ar    1  UNL1        0.3343
     12 O         140.3552  145.9040  161.8420 O.2     1  UNL1       -0.2462
     13 N         141.3107  139.1043  158.0375 N.pl3   1  UNL1       -0.2926
     14 C         142.6571  138.6135  157.5944 C.3     1  UNL1        0.0922
     15 C         142.7583  137.4644  156.6356 C.3     1  UNL1        0.0229
     16 C         141.5131  136.8060  156.1199 C.3     1  UNL1        0.0190
     17 C         140.1666  137.2968  156.5629 C.3     1  UNL1        0.0709
     18 N         138.9214  136.6385  156.0472 N.3     1  UNL1       -0.3208
     19 C         140.0655  138.4460  157.5217 C.3     1  UNL1        0.1075
     20 H         138.1034  137.0963  156.4492 H       1  UNL1        0.1189
     21 H         138.9235  135.6532  156.3109 H       1  UNL1        0.1189
     22 C         140.4145  142.1521  157.2909 C.1     1  UNL1        0.1047
     23 N         140.0314  142.6499  155.9288 N.1     1  UNL1       -0.1907
     24 C         141.2266  144.1104  164.0835 C.3     1  UNL1        0.1826
     25 C         140.0944  143.9630  165.0563 C.2     1  UNL1        0.1961
     26 O         139.0666  145.0484  165.1812 O.2     1  UNL1       -0.2893
     27 C         140.5964  141.4319  168.0715 C.ar    1  UNL1        0.1388
     28 C         139.7811  140.2643  167.6003 C.ar    1  UNL1        0.0369
     29 C         139.0703  140.3296  166.2811 C.ar    1  UNL1        0.0032
     30 C         139.1747  141.5625  165.4330 C.ar    1  UNL1        0.0031
     31 C         139.9900  142.7301  165.9043 C.ar    1  UNL1        0.0397
     32 C         140.7008  142.6648  167.2236 C.ar    1  UNL1        0.0398
     33 C         142.7412  141.7949  169.4921 C.3     1  UNL1        0.2525
     34 O         141.3072  141.3666  169.3908 O.3     1  UNL1       -0.4714
     35 C         141.9482  138.9954  161.2361 C.3     1  UNL1        0.1341
     36 C         141.0739  138.4292  162.3154 C.ar    1  UNL1        0.0004
     37 C         141.6921  137.8164  163.5370 C.ar    1  UNL1       -0.0024
     38 C         140.8179  137.2502  164.6164 C.ar    1  UNL1       -0.0003
     39 C         139.3253  137.2969  164.4743 C.ar    1  UNL1       -0.0000
     40 C         138.7071  137.9097  163.2528 C.ar    1  UNL1       -0.0003
     41 C         139.5813  138.4759  162.1733 C.ar    1  UNL1       -0.0024
@<TRIPOS>BOND
     1    33    34    1
     2    34    27    1
     3    27    28   ar
     4    28    29   ar
     5    29    30   ar
     6    30    31   ar
     7    31    25    1
     8    25    26    2
     9    25    24    1
    10    24     1    1
    11     1     2   ar
    12     2     3    2
    13     2     4   ar
    14     4     5   ar
    15     5     6   ar
    16     6    22    1
    17    22    23    3
    18     6     7   ar
    19     7    13    1
    20    13    14    1
    21    14    15    1
    22    15    16    1
    23    16    17    1
    24    17    18    1
    25    17    19    1
    26     7     8   ar
    27     8    35    1
    28    35    36    1
    29    36    37   ar
    30    37    38   ar
    31    38    39   ar
    32    39    40   ar
    33    40    41   ar
    34     5     9   ar
    35     9    10    1
    36     9    11   ar
    37    11    12    2
    38    31    32   ar
    39    32    27   ar
    40    11     1   ar
    41     8     4   ar
    42    41    36   ar
    43    19    13    1
    44    18    20    1
    45    18    21    1
@<TRIPOS>MOLECULE
*****
 41 45 0 0 0
SMALL
GASTEIGER

@<TRIPOS>ATOM
      1 N         140.6851  143.0409  160.9963 N.ar    1  UNL1       -0.2399
      2 C         139.9939  142.5477  162.2328 C.ar    1  UNL1        0.2819
      3 O         138.5942  142.0151  162.1478 O.2     1  UNL1       -0.2652
      4 C         140.7024  142.5871  163.5543 C.ar    1  UNL1        0.1349
      5 C         142.1021  143.1197  163.6394 C.ar    1  UNL1        0.0966
      6 C         142.5442  143.0351  165.0702 C.ar    1  UNL1        0.1156
      7 C         141.4177  142.4502  165.8695 C.ar    1  UNL1        0.1240
      8 N         140.2794  142.1733  164.9327 N.ar    1  UNL1       -0.3063
      9 N         142.7933  143.6129  162.4029 N.ar    1  UNL1       -0.2770
     10 C         144.1930  144.1455  162.4878 C.3     1  UNL1        0.1351
     11 C         142.0847  143.5735  161.0813 C.ar    1  UNL1        0.3343
     12 O         142.7759  144.0667  159.8447 O.2     1  UNL1       -0.2462
     13 N         141.4277  142.1882  167.3465 N.pl3   1  UNL1       -0.2926
     14 C         140.6048  143.0418  168.2652 C.3     1  UNL1        0.0922
     15 C         140.6148  142.7797  169.7421 C.3     1  UNL1        0.0229
     16 C         141.4477  141.6640  170.3003 C.3     1  UNL1        0.0190
     17 C         142.2707  140.8104  169.3815 C.3     1  UNL1        0.0709
     18 N         143.1036  139.6948  169.9396 N.3     1  UNL1       -0.3208
     19 C         142.2606  141.0725  167.9046 C.3     1  UNL1        0.1075
     20 H         143.5933  139.2229  169.1793 H       1  UNL1        0.1189
     21 H         142.5003  139.0279  170.4210 H       1  UNL1        0.1189
     22 C         143.8785  143.4606  165.6074 C.1     1  UNL1        0.1047
     23 N         145.2128  143.8861  166.1447 N.1     1  UNL1       -0.1907
     24 C         139.9765  143.0015  159.6747 C.3     1  UNL1        0.1826
     25 C         139.8471  141.7050  158.9316 C.2     1  UNL1        0.1961
     26 O         138.6633  141.4652  158.0421 O.2     1  UNL1       -0.2893
     27 C         143.2771  139.7493  158.5314 C.ar    1  UNL1        0.1388
     28 C         143.0104  138.5348  159.3703 C.ar    1  UNL1        0.0369
     29 C         141.6894  138.3770  160.0630 C.ar    1  UNL1        0.0032
     30 C         140.6349  139.4337  159.9168 C.ar    1  UNL1        0.0031
     31 C         140.9016  140.6483  159.0778 C.ar    1  UNL1        0.0397
     32 C         142.2227  140.8060  158.3851 C.ar    1  UNL1        0.0398
     33 C         144.6445  140.3118  156.3951 C.3     1  UNL1        0.2525
     34 O         144.5982  139.9070  157.8387 O.3     1  UNL1       -0.4714
     35 C         138.9513  141.5858  165.3083 C.3     1  UNL1        0.1341
     36 C         138.7853  140.0972  165.3877 C.ar    1  UNL1        0.0004
     37 C         138.0426  139.4857  166.5386 C.ar    1  UNL1       -0.0024
     38 C         137.8765  137.9971  166.6180 C.ar    1  UNL1       -0.0003
     39 C         138.4531  137.1198  165.5464 C.ar    1  UNL1       -0.0000
     40 C         139.1957  137.7313  164.3956 C.ar    1  UNL1       -0.0003
     41 C         139.3619  139.2200  164.3161 C.ar    1  UNL1       -0.0024
@<TRIPOS>BOND
     1    33    34    1
     2    34    27    1
     3    27    28   ar
     4    28    29   ar
     5    29    30   ar
     6    30    31   ar
     7    31    25    1
     8    25    26    2
     9    25    24    1
    10    24     1    1
    11     1     2   ar
    12     2     3    2
    13     2     4   ar
    14     4     5   ar
    15     5     6   ar
    16     6    22    1
    17    22    23    3
    18     6     7   ar
    19     7    13    1
    20    13    14    1
    21    14    15    1
    22    15    16    1
    23    16    17    1
    24    17    18    1
    25    17    19    1
    26     7     8   ar
    27     8    35    1
    28    35    36    1
    29    36    37   ar
    30    37    38   ar
    31    38    39   ar
    32    39    40   ar
    33    40    41   ar
    34     5     9   ar
    35     9    10    1
    36     9    11   ar
    37    11    12    2
    38    31    32   ar
    39    32    27   ar
    40    11     1   ar
    41     8     4   ar
    42    41    36   ar
    43    19    13    1
    44    18    20    1
    45    18    21    1
@<TRIPOS>MOLECULE
*****
 41 45 0 0 0
SMALL
GASTEIGER

@<TRIPOS>ATOM
      1 N         140.3797  143.3984  161.0096 N.ar    1  UNL1       -0.2399
      2 C         139.7407  142.8054  162.2303 C.ar    1  UNL1        0.2819
      3 O         138.3326  142.2924  162.1656 O.2     1  UNL1       -0.2652
      4 C         140.5097  142.7253  163.5156 C.ar    1  UNL1        0.1349
      5 C         141.9178  143.2383  163.5803 C.ar    1  UNL1        0.0966
      6 C         142.4244  143.0273  164.9763 C.ar    1  UNL1        0.1156
      7 C         141.3294  142.3838  165.7744 C.ar    1  UNL1        0.1240
      8 N         140.1461  142.1972  164.8716 N.ar    1  UNL1       -0.3063
      9 N         142.5568  143.8314  162.3597 N.ar    1  UNL1       -0.2770
     10 C         143.9649  144.3444  162.4243 C.3     1  UNL1        0.1351
     11 C         141.7876  143.9114  161.0743 C.ar    1  UNL1        0.3343
     12 O         142.4267  144.5045  159.8536 O.2     1  UNL1       -0.2462
     13 N         141.4045  141.9952  167.2212 N.pl3   1  UNL1       -0.2926
     14 C         140.7654  142.8625  168.2649 C.3     1  UNL1        0.0922
     15 C         140.8405  142.4738  169.7118 C.3     1  UNL1        0.0229
     16 C         141.5548  141.2179  170.1149 C.3     1  UNL1        0.0190
     17 C         142.1939  140.3506  169.0712 C.3     1  UNL1        0.0709
     18 N         142.9081  139.0947  169.4743 N.3     1  UNL1       -0.3208
     19 C         142.1187  140.7393  167.6244 C.3     1  UNL1        0.1075
     20 H         143.2788  138.6329  168.6437 H       1  UNL1        0.1189
     21 H         142.2560  138.4698  169.9482 H       1  UNL1        0.1189
     22 C         143.7868  143.3951  165.4849 C.1     1  UNL1        0.1047
     23 N         145.1491  143.7629  165.9935 N.1     1  UNL1       -0.1907
     24 C         139.6105  143.4784  159.7243 C.3     1  UNL1        0.1826
     25 C         139.4466  142.2557  158.8710 C.2     1  UNL1        0.1961
     26 O         140.2945  141.0446  159.1250 O.2     1  UNL1       -0.2893
     27 C         136.4487  141.0973  156.5428 C.ar    1  UNL1        0.1388
     28 C         136.4111  142.2204  155.5493 C.ar    1  UNL1        0.0369
     29 C         137.3852  143.3553  155.6630 C.ar    1  UNL1        0.0032
     30 C         138.3971  143.3671  156.7702 C.ar    1  UNL1        0.0031
     31 C         138.4348  142.2439  157.7638 C.ar    1  UNL1        0.0397
     32 C         137.4606  141.1090  157.6500 C.ar    1  UNL1        0.0398
     33 C         134.6204  139.8271  155.2035 C.3     1  UNL1        0.2525
     34 O         135.4745  139.9623  156.4291 O.3     1  UNL1       -0.4714
     35 C         138.8302  141.5892  165.2572 C.3     1  UNL1        0.1341
     36 C         138.6951  140.0991  165.3641 C.ar    1  UNL1        0.0004
     37 C         137.9708  139.4934  166.5296 C.ar    1  UNL1       -0.0024
     38 C         137.8357  138.0033  166.6364 C.ar    1  UNL1       -0.0003
     39 C         138.4249  137.1189  165.5777 C.ar    1  UNL1       -0.0000
     40 C         139.1491  137.7247  164.4122 C.ar    1  UNL1       -0.0003
     41 C         139.2843  139.2148  164.3053 C.ar    1  UNL1       -0.0024
@<TRIPOS>BOND
     1    33    34    1
     2    34    27    1
     3    27    28   ar
     4    28    29   ar
     5    29    30   ar
     6    30    31   ar
     7    31    25    1
     8    25    26    2
     9    25    24    1
    10    24     1    1
    11     1     2   ar
    12     2     3    2
    13     2     4   ar
    14     4     5   ar
    15     5     6   ar
    16     6    22    1
    17    22    23    3
    18     6     7   ar
    19     7    13    1
    20    13    14    1
    21    14    15    1
    22    15    16    1
    23    16    17    1
    24    17    18    1
    25    17    19    1
    26     7     8   ar
    27     8    35    1
    28    35    36    1
    29    36    37   ar
    30    37    38   ar
    31    38    39   ar
    32    39    40   ar
    33    40    41   ar
    34     5     9   ar
    35     9    10    1
    36     9    11   ar
    37    11    12    2
    38    31    32   ar
    39    32    27   ar
    40    11     1   ar
    41     8     4   ar
    42    41    36   ar
    43    19    13    1
    44    18    20    1
    45    18    21    1
@<TRIPOS>MOLECULE
*****
 41 45 0 0 0
SMALL
GASTEIGER

@<TRIPOS>ATOM
      1 N         142.8356  139.6485  160.6263 N.ar    1  UNL1       -0.2399
      2 C         142.5541  139.2976  162.0573 C.ar    1  UNL1        0.2819
      3 O         142.3590  137.8641  162.4536 O.2     1  UNL1       -0.2652
      4 C         142.4678  140.3802  163.0919 C.ar    1  UNL1        0.1349
      5 C         142.6629  141.8136  162.6956 C.ar    1  UNL1        0.0966
      6 C         142.5213  142.6584  163.9270 C.ar    1  UNL1        0.1156
      7 C         142.2387  141.7470  165.0843 C.ar    1  UNL1        0.1240
      8 N         142.2056  140.3390  164.5682 N.ar    1  UNL1       -0.3063
      9 N         142.9444  142.1645  161.2647 N.ar    1  UNL1       -0.2770
     10 C         143.1395  143.5980  160.8683 C.3     1  UNL1        0.1351
     11 C         143.0307  141.0819  160.2300 C.ar    1  UNL1        0.3343
     12 O         143.3121  141.4328  158.7989 O.2     1  UNL1       -0.2462
     13 N         142.0264  142.1695  166.5079 N.pl3   1  UNL1       -0.2926
     14 C         140.6812  142.6635  166.9509 C.3     1  UNL1        0.0922
     15 C         140.4689  143.0859  168.3745 C.3     1  UNL1        0.0229
     16 C         141.6019  143.0143  169.3550 C.3     1  UNL1        0.0190
     17 C         142.9471  142.5204  168.9119 C.3     1  UNL1        0.0709
     18 N         144.0801  142.4488  169.8923 N.3     1  UNL1       -0.3208
     19 C         143.1593  142.0979  167.4883 C.3     1  UNL1        0.1075
     20 H         144.9133  142.0933  169.4236 H       1  UNL1        0.1189
     21 H         143.8281  141.8239  170.6581 H       1  UNL1        0.1189
     22 C         142.6413  144.1523  163.9899 C.1     1  UNL1        0.1047
     23 N         142.7612  145.6462  164.0529 N.1     1  UNL1       -0.1907
     24 C         142.9219  138.5658  159.5916 C.3     1  UNL1        0.1826
     25 C         141.7368  138.2616  158.7238 C.2     1  UNL1        0.1961
     26 O         141.8706  137.2974  157.5826 O.2     1  UNL1       -0.2893
     27 C         138.3797  139.3152  160.5595 C.ar    1  UNL1        0.1388
     28 C         137.7801  140.2420  159.5439 C.ar    1  UNL1        0.0369
     29 C         138.4994  140.5088  158.2550 C.ar    1  UNL1        0.0032
     30 C         139.8183  139.8487  157.9815 C.ar    1  UNL1        0.0031
     31 C         140.4179  138.9218  158.9972 C.ar    1  UNL1        0.0397
     32 C         139.6986  138.6550  160.2861 C.ar    1  UNL1        0.0398
     33 C         137.8344  139.9799  163.0111 C.3     1  UNL1        0.2525
     34 O         137.6603  139.0484  161.8484 O.3     1  UNL1       -0.4714
     35 C         141.9545  139.1062  165.3851 C.3     1  UNL1        0.1341
     36 C         140.5537  138.7368  165.7741 C.ar    1  UNL1        0.0004
     37 C         139.8470  137.6215  165.0622 C.ar    1  UNL1       -0.0024
     38 C         138.4462  137.2521  165.4512 C.ar    1  UNL1       -0.0003
     39 C         137.7520  137.9980  166.5521 C.ar    1  UNL1       -0.0000
     40 C         138.4587  139.1133  167.2638 C.ar    1  UNL1       -0.0003
     41 C         139.8595  139.4828  166.8749 C.ar    1  UNL1       -0.0024
@<TRIPOS>BOND
     1    33    34    1
     2    34    27    1
     3    27    28   ar
     4    28    29   ar
     5    29    30   ar
     6    30    31   ar
     7    31    25    1
     8    25    26    2
     9    25    24    1
    10    24     1    1
    11     1     2   ar
    12     2     3    2
    13     2     4   ar
    14     4     5   ar
    15     5     6   ar
    16     6    22    1
    17    22    23    3
    18     6     7   ar
    19     7    13    1
    20    13    14    1
    21    14    15    1
    22    15    16    1
    23    16    17    1
    24    17    18    1
    25    17    19    1
    26     7     8   ar
    27     8    35    1
    28    35    36    1
    29    36    37   ar
    30    37    38   ar
    31    38    39   ar
    32    39    40   ar
    33    40    41   ar
    34     5     9   ar
    35     9    10    1
    36     9    11   ar
    37    11    12    2
    38    31    32   ar
    39    32    27   ar
    40    11     1   ar
    41     8     4   ar
    42    41    36   ar
    43    19    13    1
    44    18    20    1
    45    18    21    1
@<TRIPOS>MOLECULE
*****
 41 45 0 0 0
SMALL
GASTEIGER

@<TRIPOS>ATOM
      1 N         143.1318  139.0034  156.9153 N.ar    1  UNL1       -0.2399
      2 C         143.1286  139.2118  158.4007 C.ar    1  UNL1        0.2819
      3 O         143.3029  138.0414  159.3226 O.2     1  UNL1       -0.2652
      4 C         142.9511  140.5905  158.9642 C.ar    1  UNL1        0.1349
      5 C         142.7768  141.7609  158.0423 C.ar    1  UNL1        0.0966
      6 C         142.6237  142.9940  158.8824 C.ar    1  UNL1        0.1156
      7 C         142.7034  142.5858  160.3236 C.ar    1  UNL1        0.1240
      8 N         142.9058  141.1004  160.3742 N.ar    1  UNL1       -0.3063
      9 N         142.7800  141.5525  156.5569 N.ar    1  UNL1       -0.2770
     10 C         142.6057  142.7228  155.6349 C.3     1  UNL1        0.1351
     11 C         142.9575  140.1736  155.9934 C.ar    1  UNL1        0.3343
     12 O         142.9607  139.9652  154.5079 O.2     1  UNL1       -0.2462
     13 N         142.5991  143.5022  161.5066 N.pl3   1  UNL1       -0.2926
     14 C         143.8375  143.9221  162.2415 C.3     1  UNL1        0.0922
     15 C         143.7331  144.8385  163.4245 C.3     1  UNL1        0.0229
     16 C         142.3904  145.3349  163.8726 C.3     1  UNL1        0.0190
     17 C         141.1521  144.9149  163.1377 C.3     1  UNL1        0.0709
     18 N         139.8094  145.4113  163.5857 N.3     1  UNL1       -0.3208
     19 C         141.2565  143.9986  161.9547 C.3     1  UNL1        0.1075
     20 H         139.0853  145.0291  162.9774 H       1  UNL1        0.1189
     21 H         139.7904  146.4300  163.5385 H       1  UNL1        0.1189
     22 C         142.4257  144.3903  158.3712 C.1     1  UNL1        0.1047
     23 N         142.2277  145.7865  157.8599 N.1     1  UNL1       -0.1907
     24 C         143.3093  137.6246  156.3518 C.3     1  UNL1        0.1826
     25 C         142.1222  136.7220  156.1901 C.2     1  UNL1        0.1961
     26 O         140.7558  137.3081  155.9914 O.2     1  UNL1       -0.2893
     27 C         143.5451  133.1384  157.1300 C.ar    1  UNL1        0.1388
     28 C         142.6600  132.2556  156.3010 C.ar    1  UNL1        0.0369
     29 C         141.5957  132.8616  155.4350 C.ar    1  UNL1        0.0032
     30 C         141.4163  134.3503  155.3980 C.ar    1  UNL1        0.0031
     31 C         142.3015  135.2332  156.2270 C.ar    1  UNL1        0.0397
     32 C         143.3658  134.6272  157.0930 C.ar    1  UNL1        0.0398
     33 C         144.8998  131.0633  157.9102 C.3     1  UNL1        0.2525
     34 O         144.6095  132.5324  157.9959 O.3     1  UNL1       -0.4714
     35 C         143.0393  140.2706  161.6166 C.3     1  UNL1        0.1341
     36 C         141.8835  139.4412  162.0923 C.ar    1  UNL1        0.0004
     37 C         140.4857  139.9764  161.9940 C.ar    1  UNL1       -0.0024
     38 C         139.3299  139.1471  162.4697 C.ar    1  UNL1       -0.0003
     39 C         139.5719  137.7825  163.0439 C.ar    1  UNL1       -0.0000
     40 C         140.9697  137.2474  163.1422 C.ar    1  UNL1       -0.0003
     41 C         142.1256  138.0767  162.6665 C.ar    1  UNL1       -0.0024
@<TRIPOS>BOND
     1    33    34    1
     2    34    27    1
     3    27    28   ar
     4    28    29   ar
     5    29    30   ar
     6    30    31   ar
     7    31    25    1
     8    25    26    2
     9    25    24    1
    10    24     1    1
    11     1     2   ar
    12     2     3    2
    13     2     4   ar
    14     4     5   ar
    15     5     6   ar
    16     6    22    1
    17    22    23    3
    18     6     7   ar
    19     7    13    1
    20    13    14    1
    21    14    15    1
    22    15    16    1
    23    16    17    1
    24    17    18    1
    25    17    19    1
    26     7     8   ar
    27     8    35    1
    28    35    36    1
    29    36    37   ar
    30    37    38   ar
    31    38    39   ar
    32    39    40   ar
    33    40    41   ar
    34     5     9   ar
    35     9    10    1
    36     9    11   ar
    37    11    12    2
    38    31    32   ar
    39    32    27   ar
    40    11     1   ar
    41     8     4   ar
    42    41    36   ar
    43    19    13    1
    44    18    20    1
    45    18    21    1
@<TRIPOS>MOLECULE
*****
 41 45 0 0 0
SMALL
GASTEIGER

@<TRIPOS>ATOM
      1 N         141.5752  138.7560  157.5309 N.ar    1  UNL1       -0.2399
      2 C         141.7834  138.3512  158.9602 C.ar    1  UNL1        0.2819
      3 O         142.6856  137.1990  159.2896 O.2     1  UNL1       -0.2652
      4 C         141.0893  139.0986  160.0600 C.ar    1  UNL1        0.1349
      5 C         140.1871  140.2508  159.7306 C.ar    1  UNL1        0.0966
      6 C         139.6414  140.7950  161.0175 C.ar    1  UNL1        0.1156
      7 C         140.2064  139.9791  162.1423 C.ar    1  UNL1        0.1240
      8 N         141.1012  138.9307  161.5505 N.ar    1  UNL1       -0.3063
      9 N         139.9790  140.6556  158.3013 N.ar    1  UNL1       -0.2770
     10 C         139.0768  141.8078  157.9718 C.3     1  UNL1        0.1351
     11 C         140.6731  139.9081  157.2015 C.ar    1  UNL1        0.3343
     12 O         140.4650  140.3130  155.7721 O.2     1  UNL1       -0.2462
     13 N         139.9258  140.1768  163.6025 N.pl3   1  UNL1       -0.2926
     14 C         140.6577  141.2377  164.3699 C.3     1  UNL1        0.0922
     15 C         140.3771  141.4354  165.8301 C.3     1  UNL1        0.0229
     16 C         139.3646  140.5723  166.5229 C.3     1  UNL1        0.0190
     17 C         138.6327  139.5115  165.7555 C.3     1  UNL1        0.0709
     18 N         137.6202  138.6484  166.4482 N.3     1  UNL1       -0.3208
     19 C         138.9133  139.3138  164.2952 C.3     1  UNL1        0.1075
     20 H         137.2237  137.9870  165.7806 H       1  UNL1        0.1189
     21 H         136.8770  139.2345  166.8284 H       1  UNL1        0.1189
     22 C         138.6967  141.9519  161.1554 C.1     1  UNL1        0.1047
     23 N         137.7519  143.1088  161.2933 N.1     1  UNL1       -0.1907
     24 C         142.2694  138.0086  156.4311 C.3     1  UNL1        0.1826
     25 C         141.5935  136.8412  155.7750 C.2     1  UNL1        0.1961
     26 O         140.2300  137.0059  155.1717 O.2     1  UNL1       -0.2893
     27 C         143.8350  133.7344  156.8110 C.ar    1  UNL1        0.1388
     28 C         143.6560  132.8449  155.6166 C.ar    1  UNL1        0.0369
     29 C         142.7896  133.2875  154.4750 C.ar    1  UNL1        0.0032
     30 C         142.1020  134.6196  154.5277 C.ar    1  UNL1        0.0031
     31 C         142.2810  135.5091  155.7222 C.ar    1  UNL1        0.0397
     32 C         143.1475  135.0665  156.8638 C.ar    1  UNL1        0.0398
     33 C         145.3336  131.9317  157.9310 C.3     1  UNL1        0.2525
     34 O         144.7014  133.2918  157.9527 O.3     1  UNL1       -0.4714
     35 C         141.8725  137.8960  162.3151 C.3     1  UNL1        0.1341
     36 C         142.7332  138.3061  163.4731 C.ar    1  UNL1        0.0004
     37 C         142.3333  137.9396  164.8716 C.ar    1  UNL1       -0.0024
     38 C         143.1940  138.3497  166.0296 C.ar    1  UNL1       -0.0003
     39 C         144.4547  139.1263  165.7892 C.ar    1  UNL1       -0.0000
     40 C         144.8545  139.4928  164.3908 C.ar    1  UNL1       -0.0003
     41 C         143.9939  139.0828  163.2327 C.ar    1  UNL1       -0.0024
@<TRIPOS>BOND
     1    33    34    1
     2    34    27    1
     3    27    28   ar
     4    28    29   ar
     5    29    30   ar
     6    30    31   ar
     7    31    25    1
     8    25    26    2
     9    25    24    1
    10    24     1    1
    11     1     2   ar
    12     2     3    2
    13     2     4   ar
    14     4     5   ar
    15     5     6   ar
    16     6    22    1
    17    22    23    3
    18     6     7   ar
    19     7    13    1
    20    13    14    1
    21    14    15    1
    22    15    16    1
    23    16    17    1
    24    17    18    1
    25    17    19    1
    26     7     8   ar
    27     8    35    1
    28    35    36    1
    29    36    37   ar
    30    37    38   ar
    31    38    39   ar
    32    39    40   ar
    33    40    41   ar
    34     5     9   ar
    35     9    10    1
    36     9    11   ar
    37    11    12    2
    38    31    32   ar
    39    32    27   ar
    40    11     1   ar
    41     8     4   ar
    42    41    36   ar
    43    19    13    1
    44    18    20    1
    45    18    21    1
