@<TRIPOS>MOLECULE
*****
 30 34 0 0 0
SMALL
GASTEIGER

@<TRIPOS>ATOM
      1 C         141.7954  141.0326  166.9953 C.3     1  UNL1        0.1836
      2 C         141.8139  141.1677  168.4891 C.2     1  UNL1        0.1125
      3 C         141.1942  142.1731  169.4137 C.2     1  UNL1        0.3424
      4 N         140.3793  143.3024  168.8563 N.pl3   1  UNL1       -0.2446
      5 N         141.3892  142.0492  170.8958 N.2     1  UNL1        0.0722
      6 N         142.2040  140.9199  171.4532 N.am    1  UNL1        0.0405
      7 C         142.8238  139.9145  170.5285 C.2     1  UNL1        0.3289
      8 O         143.6387  138.7852  171.0860 O.2     1  UNL1       -0.2626
      9 C         142.6288  140.0384  169.0465 C.2     1  UNL1        0.1626
     10 N         143.1138  139.2054  167.8972 N.2     1  UNL1       -0.1725
     11 N         142.5987  139.8200  166.6294 N.pl3   1  UNL1       -0.2013
     12 H         140.2513  143.3838  167.8836 H       1  UNL1        0.2885
     13 H         139.9725  143.9623  169.4633 H       1  UNL1        0.2885
     14 C         139.5277  146.2968  161.6315 C.3     1  UNL1        0.0310
     15 C         139.4712  145.2254  162.6798 C.ar    1  UNL1       -0.0217
     16 C         138.1472  144.6705  163.1145 C.ar    1  UNL1       -0.0011
     17 C         138.0907  143.5992  164.1628 C.ar    1  UNL1        0.0371
     18 C         139.3582  143.0827  164.7765 C.ar    1  UNL1        0.1446
     19 O         139.6140  142.0393  165.8233 O.2     1  UNL1       -0.4560
     20 C         141.0962  141.9494  166.0357 C.ar    1  UNL1        0.1432
     21 C         141.7564  142.9372  165.1201 C.ar    1  UNL1        0.0134
     22 C         143.2317  143.1817  165.0032 C.3     1  UNL1        0.0340
     23 C         140.6822  143.6376  164.3418 C.ar    1  UNL1        0.0329
     24 C         140.7387  144.7090  163.2935 C.ar    1  UNL1       -0.0015
     25 C         142.8440  139.3111  165.2399 C.ar    1  UNL1        0.0698
     26 C         144.1271  139.6403  164.5361 C.ar    1  UNL1        0.0163
     27 C         144.3723  139.1314  163.1466 C.ar    1  UNL1        0.0013
     28 C         143.3345  138.2932  162.4608 C.ar    1  UNL1        0.0001
     29 C         142.0514  137.9640  163.1645 C.ar    1  UNL1        0.0013
     30 C         141.8061  138.4728  164.5540 C.ar    1  UNL1        0.0163
@<TRIPOS>BOND
     1    14    15    1
     2    15    16   ar
     3    16    17   ar
     4    17    18   ar
     5    18    19   ar
     6    19    20   ar
     7    20     1    1
     8     1     2    1
     9     2     3    2
    10     3     4    1
    11     3     5    1
    12     5     6    2
    13     6     7    1
    14     7     8    2
    15     7     9    1
    16     9    10    2
    17    10    11    1
    18    11    25    1
    19    25    26   ar
    20    26    27   ar
    21    27    28   ar
    22    28    29   ar
    23    29    30   ar
    24    20    21   ar
    25    21    22    1
    26    21    23   ar
    27    23    24   ar
    28    24    15   ar
    29    23    18   ar
    30    11     1    1
    31    30    25   ar
    32     9     2    1
    33     4    12    1
    34     4    13    1
@<TRIPOS>MOLECULE
*****
 30 34 0 0 0
SMALL
GASTEIGER

@<TRIPOS>ATOM
      1 C         141.0557  140.4744  166.9976 C.3     1  UNL1        0.1836
      2 C         140.4740  140.3411  168.3738 C.2     1  UNL1        0.1125
      3 C         139.1534  139.8213  168.8592 C.2     1  UNL1        0.3424
      4 N         138.1410  139.3115  167.8767 N.pl3   1  UNL1       -0.2446
      5 N         138.8450  139.8114  170.3271 N.2     1  UNL1        0.0722
      6 N         139.8574  140.3212  171.3096 N.am    1  UNL1        0.0405
      7 C         141.1780  140.8410  170.8241 C.2     1  UNL1        0.3289
      8 O         142.1904  141.3508  171.8066 O.2     1  UNL1       -0.2626
      9 C         141.4864  140.8509  169.3562 C.2     1  UNL1        0.1626
     10 N         142.6936  141.2993  168.5872 N.2     1  UNL1       -0.1725
     11 N         142.4274  141.0666  167.1294 N.pl3   1  UNL1       -0.2013
     12 H         138.3433  139.3180  166.9133 H       1  UNL1        0.2885
     13 H         137.2742  138.9703  168.1954 H       1  UNL1        0.2885
     14 C         137.5888  139.9059  159.9775 C.3     1  UNL1        0.0310
     15 C         138.1780  139.5255  161.3035 C.ar    1  UNL1       -0.0217
     16 C         138.1921  138.0885  161.7334 C.ar    1  UNL1       -0.0011
     17 C         138.7812  137.7081  163.0594 C.ar    1  UNL1        0.0371
     18 C         139.3562  138.7647  163.9554 C.ar    1  UNL1        0.1446
     19 O         139.9999  138.6920  165.3084 O.2     1  UNL1       -0.4560
     20 C         140.3835  140.0840  165.7146 C.ar    1  UNL1        0.1432
     21 C         139.9770  141.0171  164.6128 C.ar    1  UNL1        0.0134
     22 C         140.1713  142.5044  164.6003 C.3     1  UNL1        0.0340
     23 C         139.3421  140.2017  163.5255 C.ar    1  UNL1        0.0329
     24 C         138.7530  140.5821  162.1995 C.ar    1  UNL1       -0.0015
     25 C         143.3679  141.3724  166.0016 C.ar    1  UNL1        0.0698
     26 C         143.7966  142.7868  165.7451 C.ar    1  UNL1        0.0163
     27 C         144.7371  143.0926  164.6173 C.ar    1  UNL1        0.0013
     28 C         145.2489  141.9840  163.7460 C.ar    1  UNL1        0.0001
     29 C         144.8203  140.5696  164.0026 C.ar    1  UNL1        0.0013
     30 C         143.8798  140.2638  165.1303 C.ar    1  UNL1        0.0163
@<TRIPOS>BOND
     1    14    15    1
     2    15    16   ar
     3    16    17   ar
     4    17    18   ar
     5    18    19   ar
     6    19    20   ar
     7    20     1    1
     8     1     2    1
     9     2     3    2
    10     3     4    1
    11     3     5    1
    12     5     6    2
    13     6     7    1
    14     7     8    2
    15     7     9    1
    16     9    10    2
    17    10    11    1
    18    11    25    1
    19    25    26   ar
    20    26    27   ar
    21    27    28   ar
    22    28    29   ar
    23    29    30   ar
    24    20    21   ar
    25    21    22    1
    26    21    23   ar
    27    23    24   ar
    28    24    15   ar
    29    23    18   ar
    30    11     1    1
    31    30    25   ar
    32     9     2    1
    33     4    12    1
    34     4    13    1
@<TRIPOS>MOLECULE
*****
 30 34 0 0 0
SMALL
GASTEIGER

@<TRIPOS>ATOM
      1 C         139.9614  142.2817  163.8512 C.3     1  UNL1        0.1836
      2 C         139.9982  143.3142  162.7637 C.2     1  UNL1        0.1125
      3 C         140.5977  144.6877  162.7036 C.2     1  UNL1        0.3424
      4 N         141.3222  145.2427  163.8941 N.pl3   1  UNL1       -0.2446
      5 N         140.4727  145.5065  161.4530 N.2     1  UNL1        0.0722
      6 N         139.7482  144.9517  160.2625 N.am    1  UNL1        0.0405
      7 C         139.1487  143.5780  160.3226 C.2     1  UNL1        0.3289
      8 O         138.4242  143.0232  159.1322 O.2     1  UNL1       -0.2626
      9 C         139.2736  142.7592  161.5732 C.2     1  UNL1        0.1626
     10 N         138.7891  141.3839  161.9250 N.2     1  UNL1       -0.1725
     11 N         139.2143  141.0888  163.3330 N.pl3   1  UNL1       -0.2013
     12 H         141.4043  144.7053  164.7149 H       1  UNL1        0.2885
     13 H         141.7157  146.1442  163.8546 H       1  UNL1        0.2885
     14 C         144.3892  142.5279  170.3287 C.3     1  UNL1        0.0310
     15 C         143.2042  142.6372  169.4156 C.ar    1  UNL1       -0.0217
     16 C         141.8808  143.0923  169.9555 C.ar    1  UNL1       -0.0011
     17 C         140.6958  143.2016  169.0425 C.ar    1  UNL1        0.0371
     18 C         140.8341  142.8559  167.5895 C.ar    1  UNL1        0.1446
     19 O         139.8504  142.8667  166.4571 O.2     1  UNL1       -0.4560
     20 C         140.5658  142.4182  165.2173 C.ar    1  UNL1        0.1432
     21 C         141.9916  142.1303  165.5834 C.ar    1  UNL1        0.0134
     22 C         143.0635  141.6552  164.6478 C.3     1  UNL1        0.0340
     23 C         142.1574  142.4008  167.0495 C.ar    1  UNL1        0.0329
     24 C         143.3425  142.2914  167.9626 C.ar    1  UNL1       -0.0015
     25 C         138.9403  139.8230  164.0897 C.ar    1  UNL1        0.0698
     26 C         139.3306  138.4989  163.5029 C.ar    1  UNL1        0.0163
     27 C         139.0566  137.2331  164.2596 C.ar    1  UNL1        0.0013
     28 C         138.3922  137.2914  165.6031 C.ar    1  UNL1        0.0001
     29 C         138.0019  138.6155  166.1900 C.ar    1  UNL1        0.0013
     30 C         138.2758  139.8813  165.4334 C.ar    1  UNL1        0.0163
@<TRIPOS>BOND
     1    14    15    1
     2    15    16   ar
     3    16    17   ar
     4    17    18   ar
     5    18    19   ar
     6    19    20   ar
     7    20     1    1
     8     1     2    1
     9     2     3    2
    10     3     4    1
    11     3     5    1
    12     5     6    2
    13     6     7    1
    14     7     8    2
    15     7     9    1
    16     9    10    2
    17    10    11    1
    18    11    25    1
    19    25    26   ar
    20    26    27   ar
    21    27    28   ar
    22    28    29   ar
    23    29    30   ar
    24    20    21   ar
    25    21    22    1
    26    21    23   ar
    27    23    24   ar
    28    24    15   ar
    29    23    18   ar
    30    11     1    1
    31    30    25   ar
    32     9     2    1
    33     4    12    1
    34     4    13    1
@<TRIPOS>MOLECULE
*****
 30 34 0 0 0
SMALL
GASTEIGER

@<TRIPOS>ATOM
      1 C         140.9787  140.8461  166.9864 C.3     1  UNL1        0.1836
      2 C         141.2131  140.9904  168.4610 C.2     1  UNL1        0.1125
      3 C         142.2289  141.7675  169.2445 C.2     1  UNL1        0.3424
      4 N         143.2560  142.5941  168.5290 N.pl3   1  UNL1       -0.2446
      5 N         142.2177  141.7182  170.7437 N.2     1  UNL1        0.0722
      6 N         141.1907  140.8917  171.4592 N.am    1  UNL1        0.0405
      7 C         140.1748  140.1144  170.6757 C.2     1  UNL1        0.3289
      8 O         139.1478  139.2879  171.3912 O.2     1  UNL1       -0.2626
      9 C         140.1860  140.1638  169.1765 C.2     1  UNL1        0.1626
     10 N         139.3170  139.5087  168.1442 N.2     1  UNL1       -0.1725
     11 N         139.8070  139.9304  166.7906 N.pl3   1  UNL1       -0.2013
     12 H         143.2634  142.6265  167.5451 H       1  UNL1        0.2885
     13 H         143.9227  143.1042  169.0433 H       1  UNL1        0.2885
     14 C         145.4501  142.8684  160.8594 C.3     1  UNL1        0.0310
     15 C         144.5721  142.9745  162.0710 C.ar    1  UNL1       -0.0217
     16 C         144.1975  144.3232  162.6100 C.ar    1  UNL1       -0.0011
     17 C         143.3196  144.4292  163.8216 C.ar    1  UNL1        0.0371
     18 C         142.8162  143.1866  164.4941 C.ar    1  UNL1        0.1446
     19 O         141.9420  142.9792  165.6953 O.2     1  UNL1       -0.4560
     20 C         141.7763  141.5023  165.8986 C.ar    1  UNL1        0.1432
     21 C         142.5481  140.7969  164.8231 C.ar    1  UNL1        0.0134
     22 C         142.6579  139.3114  164.6466 C.3     1  UNL1        0.0340
     23 C         143.1908  141.8379  163.9551 C.ar    1  UNL1        0.0329
     24 C         144.0688  141.7318  162.7435 C.ar    1  UNL1       -0.0015
     25 C         139.2269  139.5102  165.4727 C.ar    1  UNL1        0.0698
     26 C         139.3715  138.0914  165.0078 C.ar    1  UNL1        0.0163
     27 C         138.7914  137.6711  163.6899 C.ar    1  UNL1        0.0013
     28 C         138.0669  138.6697  162.8368 C.ar    1  UNL1        0.0001
     29 C         137.9223  140.0886  163.3016 C.ar    1  UNL1        0.0013
     30 C         138.5023  140.5088  164.6195 C.ar    1  UNL1        0.0163
@<TRIPOS>BOND
     1    14    15    1
     2    15    16   ar
     3    16    17   ar
     4    17    18   ar
     5    18    19   ar
     6    19    20   ar
     7    20     1    1
     8     1     2    1
     9     2     3    2
    10     3     4    1
    11     3     5    1
    12     5     6    2
    13     6     7    1
    14     7     8    2
    15     7     9    1
    16     9    10    2
    17    10    11    1
    18    11    25    1
    19    25    26   ar
    20    26    27   ar
    21    27    28   ar
    22    28    29   ar
    23    29    30   ar
    24    20    21   ar
    25    21    22    1
    26    21    23   ar
    27    23    24   ar
    28    24    15   ar
    29    23    18   ar
    30    11     1    1
    31    30    25   ar
    32     9     2    1
    33     4    12    1
    34     4    13    1
@<TRIPOS>MOLECULE
*****
 30 34 0 0 0
SMALL
GASTEIGER

@<TRIPOS>ATOM
      1 C         140.4737  140.6876  162.9164 C.3     1  UNL1        0.1836
      2 C         139.3603  140.4532  161.9389 C.2     1  UNL1        0.1125
      3 C         137.8740  140.3556  162.1150 C.2     1  UNL1        0.3424
      4 N         137.2690  140.5036  163.4796 N.pl3   1  UNL1       -0.2446
      5 N         136.9925  140.1098  160.9265 N.2     1  UNL1        0.0722
      6 N         137.5974  139.9617  159.5619 N.am    1  UNL1        0.0405
      7 C         139.0838  140.0594  159.3858 C.2     1  UNL1        0.3289
      8 O         139.6887  139.9113  158.0212 O.2     1  UNL1       -0.2626
      9 C         139.9653  140.3052  160.5743 C.2     1  UNL1        0.1626
     10 N         141.4524  140.4480  160.7085 N.2     1  UNL1       -0.1725
     11 N         141.7666  140.6844  162.1561 N.pl3   1  UNL1       -0.2013
     12 H         137.8475  140.6650  164.2597 H       1  UNL1        0.2885
     13 H         136.2934  140.4395  163.5952 H       1  UNL1        0.2885
     14 C         140.1740  143.1378  170.3683 C.3     1  UNL1        0.0310
     15 C         140.0636  142.2568  169.1594 C.ar    1  UNL1       -0.0217
     16 C         139.5783  140.8447  169.3022 C.ar    1  UNL1       -0.0011
     17 C         139.4679  139.9636  168.0932 C.ar    1  UNL1        0.0371
     18 C         139.8430  140.4946  166.7415 C.ar    1  UNL1        0.1446
     19 O         139.8383  139.8661  165.3795 O.2     1  UNL1       -0.4560
     20 C         140.3209  140.8897  164.3949 C.ar    1  UNL1        0.1432
     21 C         140.6237  142.1509  165.1484 C.ar    1  UNL1        0.0134
     22 C         141.1326  143.4314  164.5557 C.3     1  UNL1        0.0340
     23 C         140.3283  141.9067  166.5987 C.ar    1  UNL1        0.0329
     24 C         140.4387  142.7877  167.8076 C.ar    1  UNL1       -0.0015
     25 C         143.1337  140.8827  162.7406 C.ar    1  UNL1        0.0698
     26 C         143.7690  139.7910  163.5498 C.ar    1  UNL1        0.0163
     27 C         145.1361  139.9893  164.1343 C.ar    1  UNL1        0.0013
     28 C         145.8680  141.2793  163.9097 C.ar    1  UNL1        0.0001
     29 C         145.2326  142.3709  163.1005 C.ar    1  UNL1        0.0013
     30 C         143.8656  142.1727  162.5160 C.ar    1  UNL1        0.0163
@<TRIPOS>BOND
     1    14    15    1
     2    15    16   ar
     3    16    17   ar
     4    17    18   ar
     5    18    19   ar
     6    19    20   ar
     7    20     1    1
     8     1     2    1
     9     2     3    2
    10     3     4    1
    11     3     5    1
    12     5     6    2
    13     6     7    1
    14     7     8    2
    15     7     9    1
    16     9    10    2
    17    10    11    1
    18    11    25    1
    19    25    26   ar
    20    26    27   ar
    21    27    28   ar
    22    28    29   ar
    23    29    30   ar
    24    20    21   ar
    25    21    22    1
    26    21    23   ar
    27    23    24   ar
    28    24    15   ar
    29    23    18   ar
    30    11     1    1
    31    30    25   ar
    32     9     2    1
    33     4    12    1
    34     4    13    1
@<TRIPOS>MOLECULE
*****
 30 34 0 0 0
SMALL
GASTEIGER

@<TRIPOS>ATOM
      1 C         140.1989  141.0628  166.2520 C.3     1  UNL1        0.1836
      2 C         139.5409  140.5387  167.4940 C.2     1  UNL1        0.1125
      3 C         138.4469  139.5341  167.7027 C.2     1  UNL1        0.3424
      4 N         137.8134  138.8590  166.5224 N.pl3   1  UNL1       -0.2446
      5 N         137.9863  139.2045  169.0916 N.2     1  UNL1        0.0722
      6 N         138.6198  139.8795  170.2718 N.am    1  UNL1        0.0405
      7 C         139.7139  140.8842  170.0632 C.2     1  UNL1        0.3289
      8 O         140.3473  141.5592  171.2434 O.2     1  UNL1       -0.2626
      9 C         140.1745  141.2138  168.6742 C.2     1  UNL1        0.1626
     10 N         141.2239  142.1551  168.1617 N.2     1  UNL1       -0.1725
     11 N         141.2390  142.0617  166.6646 N.pl3   1  UNL1       -0.2013
     12 H         138.1157  139.0753  165.6108 H       1  UNL1        0.2885
     13 H         137.0953  138.1996  166.6594 H       1  UNL1        0.2885
     14 C         139.9143  138.4361  158.8600 C.3     1  UNL1        0.0310
     15 C         139.5031  139.0618  160.1597 C.ar    1  UNL1       -0.0217
     16 C         138.1177  139.6135  160.3214 C.ar    1  UNL1       -0.0011
     17 C         137.7065  140.2393  161.6212 C.ar    1  UNL1        0.0371
     18 C         138.6808  140.3132  162.7593 C.ar    1  UNL1        0.1446
     19 O         138.5619  140.8678  164.1479 O.2     1  UNL1       -0.4560
     20 C         139.8738  140.6589  164.8445 C.ar    1  UNL1        0.1432
     21 C         140.8036  139.9751  163.8864 C.ar    1  UNL1        0.0134
     22 C         142.2216  139.5751  164.1675 C.3     1  UNL1        0.0340
     23 C         140.0662  139.7614  162.5976 C.ar    1  UNL1        0.0329
     24 C         140.4773  139.1357  161.2979 C.ar    1  UNL1       -0.0015
     25 C         142.1366  142.8321  165.7422 C.ar    1  UNL1        0.0698
     26 C         143.6255  142.6827  165.8467 C.ar    1  UNL1        0.0163
     27 C         144.5231  143.4531  164.9243 C.ar    1  UNL1        0.0013
     28 C         143.9318  144.3728  163.8974 C.ar    1  UNL1        0.0001
     29 C         142.4429  144.5222  163.7930 C.ar    1  UNL1        0.0013
     30 C         141.5453  143.7519  164.7153 C.ar    1  UNL1        0.0163
@<TRIPOS>BOND
     1    14    15    1
     2    15    16   ar
     3    16    17   ar
     4    17    18   ar
     5    18    19   ar
     6    19    20   ar
     7    20     1    1
     8     1     2    1
     9     2     3    2
    10     3     4    1
    11     3     5    1
    12     5     6    2
    13     6     7    1
    14     7     8    2
    15     7     9    1
    16     9    10    2
    17    10    11    1
    18    11    25    1
    19    25    26   ar
    20    26    27   ar
    21    27    28   ar
    22    28    29   ar
    23    29    30   ar
    24    20    21   ar
    25    21    22    1
    26    21    23   ar
    27    23    24   ar
    28    24    15   ar
    29    23    18   ar
    30    11     1    1
    31    30    25   ar
    32     9     2    1
    33     4    12    1
    34     4    13    1
@<TRIPOS>MOLECULE
*****
 30 34 0 0 0
SMALL
GASTEIGER

@<TRIPOS>ATOM
      1 C         141.2700  140.6380  166.4398 C.3     1  UNL1        0.1836
      2 C         141.7148  140.1435  167.7844 C.2     1  UNL1        0.1125
      3 C         142.7451  139.1323  168.1914 C.2     1  UNL1        0.3424
      4 N         143.5455  138.4142  167.1456 N.pl3   1  UNL1       -0.2446
      5 N         142.9750  138.8390  169.6444 N.2     1  UNL1        0.0722
      6 N         142.1746  139.5569  170.6902 N.am    1  UNL1        0.0405
      7 C         141.1443  140.5682  170.2832 C.2     1  UNL1        0.3289
      8 O         140.3439  141.2862  171.3290 O.2     1  UNL1       -0.2626
      9 C         140.9143  140.8615  168.8302 C.2     1  UNL1        0.1626
     10 N         139.9750  141.7997  168.1321 N.2     1  UNL1       -0.1725
     11 N         140.1949  141.6615  166.6546 N.pl3   1  UNL1       -0.2013
     12 H         143.3946  138.6067  166.1919 H       1  UNL1        0.2885
     13 H         144.2218  137.7505  167.4128 H       1  UNL1        0.2885
     14 C         142.9750  137.2570  159.5633 C.3     1  UNL1        0.0310
     15 C         143.0357  138.1813  160.7432 C.ar    1  UNL1       -0.0217
     16 C         144.0861  139.2502  160.8053 C.ar    1  UNL1       -0.0011
     17 C         144.1468  140.1745  161.9851 C.ar    1  UNL1        0.0371
     18 C         143.1571  140.0298  163.1029 C.ar    1  UNL1        0.1446
     19 O         142.9715  140.7881  164.3837 O.2     1  UNL1       -0.4560
     20 C         141.8064  140.1879  165.1132 C.ar    1  UNL1        0.1432
     21 C         141.2719  139.0585  164.2833 C.ar    1  UNL1        0.0134
     22 C         140.1071  138.1809  164.6342 C.3     1  UNL1        0.0340
     23 C         142.1067  138.9608  163.0408 C.ar    1  UNL1        0.0329
     24 C         142.0460  138.0366  161.8610 C.ar    1  UNL1       -0.0015
     25 C         139.4672  142.4147  165.5807 C.ar    1  UNL1        0.0698
     26 C         139.7460  143.8730  165.3670 C.ar    1  UNL1        0.0163
     27 C         139.0183  144.6261  164.2932 C.ar    1  UNL1        0.0013
     28 C         138.0120  143.9210  163.4329 C.ar    1  UNL1        0.0001
     29 C         137.7332  142.4627  163.6466 C.ar    1  UNL1        0.0013
     30 C         138.4608  141.7095  164.7204 C.ar    1  UNL1        0.0163
@<TRIPOS>BOND
     1    14    15    1
     2    15    16   ar
     3    16    17   ar
     4    17    18   ar
     5    18    19   ar
     6    19    20   ar
     7    20     1    1
     8     1     2    1
     9     2     3    2
    10     3     4    1
    11     3     5    1
    12     5     6    2
    13     6     7    1
    14     7     8    2
    15     7     9    1
    16     9    10    2
    17    10    11    1
    18    11    25    1
    19    25    26   ar
    20    26    27   ar
    21    27    28   ar
    22    28    29   ar
    23    29    30   ar
    24    20    21   ar
    25    21    22    1
    26    21    23   ar
    27    23    24   ar
    28    24    15   ar
    29    23    18   ar
    30    11     1    1
    31    30    25   ar
    32     9     2    1
    33     4    12    1
    34     4    13    1
@<TRIPOS>MOLECULE
*****
 30 34 0 0 0
SMALL
GASTEIGER

@<TRIPOS>ATOM
      1 C         141.8001  140.9304  162.6443 C.3     1  UNL1        0.1836
      2 C         142.5921  140.1995  161.6009 C.2     1  UNL1        0.1125
      3 C         143.8128  139.3327  161.6918 C.2     1  UNL1        0.3424
      4 N         144.4523  139.0750  163.0240 N.pl3   1  UNL1       -0.2446
      5 N         144.3941  138.7235  160.4505 N.2     1  UNL1        0.0722
      6 N         143.7547  138.9812  159.1183 N.am    1  UNL1        0.0405
      7 C         142.5339  139.8480  159.0274 C.2     1  UNL1        0.3289
      8 O         141.8945  140.1057  157.6952 O.2     1  UNL1       -0.2626
      9 C         141.9526  140.4572  160.2687 C.2     1  UNL1        0.1626
     10 N         140.7655  141.3473  160.4888 N.2     1  UNL1       -0.1725
     11 N         140.6713  141.6398  161.9571 N.pl3   1  UNL1       -0.2013
     12 H         144.0708  139.4748  163.8388 H       1  UNL1        0.2885
     13 H         145.2535  138.5060  163.0836 H       1  UNL1        0.2885
     14 C         143.5944  142.4871  170.1264 C.3     1  UNL1        0.0310
     15 C         143.1851  141.7398  168.8918 C.ar    1  UNL1       -0.0217
     16 C         142.8631  140.2771  168.9726 C.ar    1  UNL1       -0.0011
     17 C         142.4539  139.5299  167.7380 C.ar    1  UNL1        0.0371
     18 C         142.3667  140.2454  166.4226 C.ar    1  UNL1        0.1446
     19 O         141.9946  139.7760  165.0474 O.2     1  UNL1       -0.4560
     20 C         142.0867  140.9487  164.1166 C.ar    1  UNL1        0.1432
     21 C         142.5157  142.1429  164.9165 C.ar    1  UNL1        0.0134
     22 C         142.7334  143.5284  164.3847 C.3     1  UNL1        0.0340
     23 C         142.6887  141.7082  166.3418 C.ar    1  UNL1        0.0329
     24 C         143.0979  142.4554  167.5764 C.ar    1  UNL1       -0.0015
     25 C         139.6308  142.4920  162.6213 C.ar    1  UNL1        0.0698
     26 C         138.6877  141.8845  163.6171 C.ar    1  UNL1        0.0163
     27 C         137.6473  142.7367  164.2813 C.ar    1  UNL1        0.0013
     28 C         137.5499  144.1964  163.9498 C.ar    1  UNL1        0.0001
     29 C         138.4930  144.8038  162.9540 C.ar    1  UNL1        0.0013
     30 C         139.5334  143.9517  162.2897 C.ar    1  UNL1        0.0163
@<TRIPOS>BOND
     1    14    15    1
     2    15    16   ar
     3    16    17   ar
     4    17    18   ar
     5    18    19   ar
     6    19    20   ar
     7    20     1    1
     8     1     2    1
     9     2     3    2
    10     3     4    1
    11     3     5    1
    12     5     6    2
    13     6     7    1
    14     7     8    2
    15     7     9    1
    16     9    10    2
    17    10    11    1
    18    11    25    1
    19    25    26   ar
    20    26    27   ar
    21    27    28   ar
    22    28    29   ar
    23    29    30   ar
    24    20    21   ar
    25    21    22    1
    26    21    23   ar
    27    23    24   ar
    28    24    15   ar
    29    23    18   ar
    30    11     1    1
    31    30    25   ar
    32     9     2    1
    33     4    12    1
    34     4    13    1
@<TRIPOS>MOLECULE
*****
 30 34 0 0 0
SMALL
GASTEIGER

@<TRIPOS>ATOM
      1 C         140.7248  142.3571  162.3062 C.3     1  UNL1        0.1836
      2 C         140.3118  143.7301  161.8653 C.2     1  UNL1        0.1125
      3 C         139.3188  144.7067  162.4219 C.2     1  UNL1        0.3424
      4 N         138.5289  144.3566  163.6482 N.pl3   1  UNL1       -0.2446
      5 N         139.1155  146.0335  161.7523 N.2     1  UNL1        0.0722
      6 N         139.9052  146.3836  160.5261 N.am    1  UNL1        0.0405
      7 C         140.8984  145.4069  159.9694 C.2     1  UNL1        0.3289
      8 O         141.6882  145.7570  158.7432 O.2     1  UNL1       -0.2626
      9 C         141.1017  144.0801  160.6390 C.2     1  UNL1        0.1626
     10 N         142.0027  142.9235  160.3221 N.2     1  UNL1       -0.1725
     11 N         141.7697  141.8586  161.3526 N.pl3   1  UNL1       -0.2013
     12 H         138.6624  143.4859  164.0877 H       1  UNL1        0.2885
     13 H         137.8771  144.9977  164.0135 H       1  UNL1        0.2885
     14 C         137.1338  137.6806  167.4887 C.3     1  UNL1        0.0310
     15 C         138.0140  138.7524  166.9172 C.ar    1  UNL1       -0.0217
     16 C         138.8431  139.6073  167.8291 C.ar    1  UNL1       -0.0011
     17 C         139.7233  140.6791  167.2576 C.ar    1  UNL1        0.0371
     18 C         139.7744  140.8959  165.7742 C.ar    1  UNL1        0.1446
     19 O         140.5419  141.8675  164.9277 O.2     1  UNL1       -0.4560
     20 C         140.1871  141.6131  163.4926 C.ar    1  UNL1        0.1432
     21 C         139.2003  140.4842  163.4522 C.ar    1  UNL1        0.0134
     22 C         138.5778  139.9009  162.2184 C.3     1  UNL1        0.0340
     23 C         138.9452  140.0409  164.8624 C.ar    1  UNL1        0.0329
     24 C         138.0650  138.9692  165.4339 C.ar    1  UNL1       -0.0015
     25 C         142.4605  140.5287  161.4178 C.ar    1  UNL1        0.0698
     26 C         142.1889  139.4903  160.3699 C.ar    1  UNL1        0.0163
     27 C         142.8797  138.1604  160.4351 C.ar    1  UNL1        0.0013
     28 C         143.8420  137.8690  161.5482 C.ar    1  UNL1        0.0001
     29 C         144.1136  138.9073  162.5961 C.ar    1  UNL1        0.0013
     30 C         143.4229  140.2372  162.5309 C.ar    1  UNL1        0.0163
@<TRIPOS>BOND
     1    14    15    1
     2    15    16   ar
     3    16    17   ar
     4    17    18   ar
     5    18    19   ar
     6    19    20   ar
     7    20     1    1
     8     1     2    1
     9     2     3    2
    10     3     4    1
    11     3     5    1
    12     5     6    2
    13     6     7    1
    14     7     8    2
    15     7     9    1
    16     9    10    2
    17    10    11    1
    18    11    25    1
    19    25    26   ar
    20    26    27   ar
    21    27    28   ar
    22    28    29   ar
    23    29    30   ar
    24    20    21   ar
    25    21    22    1
    26    21    23   ar
    27    23    24   ar
    28    24    15   ar
    29    23    18   ar
    30    11     1    1
    31    30    25   ar
    32     9     2    1
    33     4    12    1
    34     4    13    1
