@<TRIPOS>MOLECULE
*****
 33 37 0 0 0
SMALL
GASTEIGER

@<TRIPOS>ATOM
      1 N         141.4613  137.6765  163.8366 N.pl3   1  UNL1       -0.2802
      2 H         141.3561  136.6977  163.8459 H       1  UNL1        0.1552
      3 C         141.5342  138.4106  162.5305 C.ar    1  UNL1        0.2208
      4 N         141.5120  137.6477  161.2392 N.ar    1  UNL1       -0.2111
      5 C         141.5849  138.3818  159.9331 C.ar    1  UNL1        0.1147
      6 C         141.6800  139.8787  159.9184 C.ar    1  UNL1        0.0960
      7 CL        141.7528  140.6128  158.6123 Cl      1  UNL1       -0.0790
      8 C         141.7021  140.6416  161.2098 C.ar    1  UNL1        0.1138
      9 N         141.6292  139.9075  162.5158 N.ar    1  UNL1       -0.2111
     10 C         141.7972  142.1385  161.1951 C.ar    1  UNL1        0.1031
     11 C         142.9581  142.9433  160.6905 C.ar    1  UNL1        0.1196
     12 N         142.6263  144.3956  160.8660 N.ar    1  UNL1       -0.2248
     13 C         141.2604  144.4884  161.4789 C.ar    1  UNL1        0.1479
     14 C         140.4171  145.6628  161.8781 C.ar    1  UNL1        0.0374
     15 C         139.0613  145.4423  162.4807 C.ar    1  UNL1        0.0046
     16 C         138.5489  144.0473  162.6841 C.ar    1  UNL1        0.0191
     17 C         139.3922  142.8729  162.2849 C.ar    1  UNL1        0.0815
     18 N         140.7480  143.0934  161.6823 N.ar    1  UNL1       -0.2874
     19 C         140.3280  139.0985  165.6922 C.ar    1  UNL1        0.1533
     20 C         140.4154  139.8557  166.9842 C.ar    1  UNL1        0.0527
     21 C         141.7236  139.9481  167.7123 C.ar    1  UNL1        0.0510
     22 C         142.9443  139.2833  167.1485 C.ar    1  UNL1        0.0160
     23 C         142.8569  138.5261  165.8566 C.ar    1  UNL1        0.0190
     24 C         141.5487  138.4337  165.1284 C.ar    1  UNL1        0.0850
     25 N         141.8110  140.7053  169.0042 N.pl3   1  UNL1       -0.3046
     26 C         142.7271  141.8874  169.1201 C.3     1  UNL1        0.1079
     27 C         142.8146  142.6446  170.4120 C.3     1  UNL1        0.0903
     28 N         141.9859  142.2198  171.5879 N.3     1  UNL1       -0.2946
     29 C         141.0698  141.0377  171.4720 C.3     1  UNL1        0.0903
     30 C         140.9824  140.2804  170.1801 C.3     1  UNL1        0.1079
     31 H         141.4051  143.0186  171.8427 H       1  UNL1        0.1233
     32 C         138.2226  140.2476  164.6938 C.3     1  UNL1        0.2525
     33 O         139.0198  139.0061  164.9642 O.3     1  UNL1       -0.4701
@<TRIPOS>BOND
     1    32    33    1
     2    33    19    1
     3    19    20   ar
     4    20    21   ar
     5    21    25    1
     6    25    26    1
     7    26    27    1
     8    27    28    1
     9    28    29    1
    10    29    30    1
    11    21    22   ar
    12    22    23   ar
    13    23    24   ar
    14    24     1    1
    15     1     3    1
    16     3     4   ar
    17     4     5   ar
    18     5     6   ar
    19     6     7    1
    20     6     8   ar
    21     8    10    1
    22    10    11   ar
    23    11    12   ar
    24    12    13   ar
    25    13    14   ar
    26    14    15   ar
    27    15    16   ar
    28    16    17   ar
    29    17    18   ar
    30     8     9   ar
    31    24    19   ar
    32     9     3   ar
    33    30    25    1
    34    18    10   ar
    35    18    13   ar
    36    28    31    1
    37     1     2    1
@<TRIPOS>MOLECULE
*****
 33 37 0 0 0
SMALL
GASTEIGER

@<TRIPOS>ATOM
      1 N         137.3592  140.7554  163.7711 N.pl3   1  UNL1       -0.2802
      2 H         136.4398  141.1054  163.8091 H       1  UNL1        0.1552
      3 C         137.9207  140.2622  162.4705 C.ar    1  UNL1        0.2208
      4 N         138.4769  138.8726  162.3726 N.ar    1  UNL1       -0.2111
      5 C         139.0384  138.3794  161.0721 C.ar    1  UNL1        0.1147
      6 C         139.0438  139.2759  159.8694 C.ar    1  UNL1        0.0960
      7 CL        139.6053  138.7827  158.5689 Cl      1  UNL1       -0.0790
      8 C         138.4876  140.6656  159.9674 C.ar    1  UNL1        0.1138
      9 N         137.9261  141.1587  161.2679 N.ar    1  UNL1       -0.2111
     10 C         138.4930  141.5621  158.7647 C.ar    1  UNL1        0.1031
     11 C         137.7391  141.3302  157.4888 C.ar    1  UNL1        0.1196
     12 N         138.0334  142.4726  156.5624 N.ar    1  UNL1       -0.2248
     13 C         138.9691  143.4106  157.2658 C.ar    1  UNL1        0.1479
     14 C         139.5992  144.7044  156.8427 C.ar    1  UNL1        0.0374
     15 C         140.5133  145.4354  157.7807 C.ar    1  UNL1        0.0046
     16 C         140.7973  144.8726  159.1418 C.ar    1  UNL1        0.0191
     17 C         140.1672  143.5789  159.5649 C.ar    1  UNL1        0.0815
     18 N         139.2531  142.8478  158.6269 N.ar    1  UNL1       -0.2874
     19 C         139.1358  141.8448  165.3224 C.ar    1  UNL1        0.1533
     20 C         139.9751  141.8046  166.5652 C.ar    1  UNL1        0.0527
     21 C         139.8767  140.6349  167.4990 C.ar    1  UNL1        0.0510
     22 C         138.9393  139.5054  167.1903 C.ar    1  UNL1        0.0160
     23 C         138.1001  139.5456  165.9476 C.ar    1  UNL1        0.0190
     24 C         138.1984  140.7153  165.0137 C.ar    1  UNL1        0.0850
     25 N         140.7159  140.5948  168.7417 N.pl3   1  UNL1       -0.3046
     26 C         140.4575  141.5687  169.8529 C.3     1  UNL1        0.1079
     27 C         141.2967  141.5286  171.0956 C.3     1  UNL1        0.0903
     28 N         142.3942  140.5147  171.2270 N.3     1  UNL1       -0.2946
     29 C         142.6526  139.5409  170.1157 C.3     1  UNL1        0.0903
     30 C         141.8135  139.5809  168.8731 C.3     1  UNL1        0.1079
     31 H         142.1874  139.9632  172.0597 H       1  UNL1        0.1233
     32 C         138.5309  144.2979  164.7174 C.3     1  UNL1        0.2525
     33 O         139.2342  143.0145  164.3885 O.3     1  UNL1       -0.4701
@<TRIPOS>BOND
     1    32    33    1
     2    33    19    1
     3    19    20   ar
     4    20    21   ar
     5    21    25    1
     6    25    26    1
     7    26    27    1
     8    27    28    1
     9    28    29    1
    10    29    30    1
    11    21    22   ar
    12    22    23   ar
    13    23    24   ar
    14    24     1    1
    15     1     3    1
    16     3     4   ar
    17     4     5   ar
    18     5     6   ar
    19     6     7    1
    20     6     8   ar
    21     8    10    1
    22    10    11   ar
    23    11    12   ar
    24    12    13   ar
    25    13    14   ar
    26    14    15   ar
    27    15    16   ar
    28    16    17   ar
    29    17    18   ar
    30     8     9   ar
    31    24    19   ar
    32     9     3   ar
    33    30    25    1
    34    18    10   ar
    35    18    13   ar
    36    28    31    1
    37     1     2    1
@<TRIPOS>MOLECULE
*****
 33 37 0 0 0
SMALL
GASTEIGER

@<TRIPOS>ATOM
      1 N         137.3670  140.9076  163.7371 N.pl3   1  UNL1       -0.2802
      2 H         136.4463  141.2520  163.7898 H       1  UNL1        0.1552
      3 C         137.9275  140.4637  162.4185 C.ar    1  UNL1        0.2208
      4 N         138.3925  139.0489  162.2393 N.ar    1  UNL1       -0.2111
      5 C         138.9529  138.6050  160.9206 C.ar    1  UNL1        0.1147
      6 C         139.0484  139.5759  159.7812 C.ar    1  UNL1        0.0960
      7 CL        139.6088  139.1320  158.4625 Cl      1  UNL1       -0.0790
      8 C         138.5833  140.9908  159.9605 C.ar    1  UNL1        0.1138
      9 N         138.0229  141.4346  161.2791 N.ar    1  UNL1       -0.2111
     10 C         138.6787  141.9617  158.8210 C.ar    1  UNL1        0.1031
     11 C         139.6491  143.1002  158.7118 C.ar    1  UNL1        0.1196
     12 N         139.3906  143.8066  157.4141 N.ar    1  UNL1       -0.2248
     13 C         138.2605  143.1046  156.7212 C.ar    1  UNL1        0.1479
     14 C         137.5752  143.3564  155.4109 C.ar    1  UNL1        0.0374
     15 C         136.4500  142.4679  154.9702 C.ar    1  UNL1        0.0046
     16 C         136.0100  141.3276  155.8397 C.ar    1  UNL1        0.0191
     17 C         136.6953  141.0758  157.1501 C.ar    1  UNL1        0.0815
     18 N         137.8205  141.9643  157.5908 N.ar    1  UNL1       -0.2874
     19 C         139.1199  141.9620  165.3389 C.ar    1  UNL1        0.1533
     20 C         139.9623  141.8810  166.5775 C.ar    1  UNL1        0.0527
     21 C         139.8941  140.6646  167.4526 C.ar    1  UNL1        0.0510
     22 C         138.9836  139.5293  167.0893 C.ar    1  UNL1        0.0160
     23 C         138.1413  139.6104  165.8509 C.ar    1  UNL1        0.0190
     24 C         138.2094  140.8267  164.9756 C.ar    1  UNL1        0.0850
     25 N         140.7365  140.5837  168.6911 N.pl3   1  UNL1       -0.3046
     26 C         141.8929  139.6302  168.7505 C.3     1  UNL1        0.1079
     27 C         142.7354  139.5492  169.9890 C.3     1  UNL1        0.0903
     28 N         142.4214  140.4217  171.1680 N.3     1  UNL1       -0.2946
     29 C         141.2649  141.3752  171.1086 C.3     1  UNL1        0.0903
     30 C         140.4225  141.4562  169.8701 C.3     1  UNL1        0.1079
     31 H         143.2548  140.9807  171.3509 H       1  UNL1        0.1233
     32 C         138.7734  144.5149  165.0035 C.3     1  UNL1        0.2525
     33 O         139.1881  143.1783  164.4637 O.3     1  UNL1       -0.4701
@<TRIPOS>BOND
     1    32    33    1
     2    33    19    1
     3    19    20   ar
     4    20    21   ar
     5    21    25    1
     6    25    26    1
     7    26    27    1
     8    27    28    1
     9    28    29    1
    10    29    30    1
    11    21    22   ar
    12    22    23   ar
    13    23    24   ar
    14    24     1    1
    15     1     3    1
    16     3     4   ar
    17     4     5   ar
    18     5     6   ar
    19     6     7    1
    20     6     8   ar
    21     8    10    1
    22    10    11   ar
    23    11    12   ar
    24    12    13   ar
    25    13    14   ar
    26    14    15   ar
    27    15    16   ar
    28    16    17   ar
    29    17    18   ar
    30     8     9   ar
    31    24    19   ar
    32     9     3   ar
    33    30    25    1
    34    18    10   ar
    35    18    13   ar
    36    28    31    1
    37     1     2    1
@<TRIPOS>MOLECULE
*****
 33 37 0 0 0
SMALL
GASTEIGER

@<TRIPOS>ATOM
      1 N         139.8037  137.8228  164.1899 N.pl3   1  UNL1       -0.2802
      2 H         139.8526  136.8398  164.2124 H       1  UNL1        0.1552
      3 C         139.2889  138.5203  162.9658 C.ar    1  UNL1        0.2208
      4 N         138.1052  137.9670  162.2293 N.ar    1  UNL1       -0.2111
      5 C         137.5904  138.6645  161.0052 C.ar    1  UNL1        0.1147
      6 C         138.2593  139.9153  160.5176 C.ar    1  UNL1        0.0960
      7 CL        137.7445  140.6129  159.2935 Cl      1  UNL1       -0.0790
      8 C         139.4432  140.4688  161.2542 C.ar    1  UNL1        0.1138
      9 N         139.9579  139.7712  162.4782 N.ar    1  UNL1       -0.2111
     10 C         140.1121  141.7196  160.7665 C.ar    1  UNL1        0.1031
     11 C         141.1473  141.8013  159.6841 C.ar    1  UNL1        0.1196
     12 N         141.5383  143.2406  159.5243 N.ar    1  UNL1       -0.2248
     13 C         140.7448  144.0485  160.5081 C.ar    1  UNL1        0.1479
     14 C         140.7110  145.5186  160.8040 C.ar    1  UNL1        0.0374
     15 C         139.7957  146.0487  161.8676 C.ar    1  UNL1        0.0046
     16 C         138.9143  145.1086  162.6353 C.ar    1  UNL1        0.0191
     17 C         138.9481  143.6385  162.3394 C.ar    1  UNL1        0.0815
     18 N         139.8634  143.1084  161.2758 N.ar    1  UNL1       -0.2874
     19 C         141.7059  138.8253  165.6484 C.ar    1  UNL1        0.1533
     20 C         142.1461  139.6255  166.8384 C.ar    1  UNL1        0.0527
     21 C         141.1245  140.2234  167.7597 C.ar    1  UNL1        0.0510
     22 C         139.6627  140.0212  167.4911 C.ar    1  UNL1        0.0160
     23 C         139.2225  139.2210  166.3012 C.ar    1  UNL1        0.0190
     24 C         140.2440  138.6230  165.3798 C.ar    1  UNL1        0.0850
     25 N         141.5648  141.0236  168.9495 N.pl3   1  UNL1       -0.3046
     26 C         140.8048  140.9296  170.2393 C.3     1  UNL1        0.1079
     27 C         141.2451  141.7298  171.4293 C.3     1  UNL1        0.0903
     28 N         142.4453  142.6239  171.3294 N.3     1  UNL1       -0.2946
     29 C         143.2053  142.7179  170.0396 C.3     1  UNL1        0.0903
     30 C         142.7650  141.9177  168.8497 C.3     1  UNL1        0.1079
     31 H         143.1070  142.3088  172.0388 H       1  UNL1        0.1233
     32 C         143.7613  139.1033  164.0838 C.3     1  UNL1        0.2525
     33 O         142.7275  138.2273  164.7271 O.3     1  UNL1       -0.4701
@<TRIPOS>BOND
     1    32    33    1
     2    33    19    1
     3    19    20   ar
     4    20    21   ar
     5    21    25    1
     6    25    26    1
     7    26    27    1
     8    27    28    1
     9    28    29    1
    10    29    30    1
    11    21    22   ar
    12    22    23   ar
    13    23    24   ar
    14    24     1    1
    15     1     3    1
    16     3     4   ar
    17     4     5   ar
    18     5     6   ar
    19     6     7    1
    20     6     8   ar
    21     8    10    1
    22    10    11   ar
    23    11    12   ar
    24    12    13   ar
    25    13    14   ar
    26    14    15   ar
    27    15    16   ar
    28    16    17   ar
    29    17    18   ar
    30     8     9   ar
    31    24    19   ar
    32     9     3   ar
    33    30    25    1
    34    18    10   ar
    35    18    13   ar
    36    28    31    1
    37     1     2    1
@<TRIPOS>MOLECULE
*****
 33 37 0 0 0
SMALL
GASTEIGER

@<TRIPOS>ATOM
      1 N         137.2189  141.0056  163.4210 N.pl3   1  UNL1       -0.2802
      2 H         136.2482  141.0715  163.5715 H       1  UNL1        0.1552
      3 C         137.7428  140.5602  162.0879 C.ar    1  UNL1        0.2208
      4 N         138.2143  139.1486  161.9010 N.ar    1  UNL1       -0.2111
      5 C         138.7381  138.7032  160.5678 C.ar    1  UNL1        0.1147
      6 C         138.7904  139.6695  159.4217 C.ar    1  UNL1        0.0960
      7 CL        139.3142  139.2241  158.0885 Cl      1  UNL1       -0.0790
      8 C         138.3188  141.0812  159.6087 C.ar    1  UNL1        0.1138
      9 N         137.7950  141.5265  160.9418 N.ar    1  UNL1       -0.2111
     10 C         138.3710  142.0474  158.4625 C.ar    1  UNL1        0.1031
     11 C         139.2986  143.2197  158.3392 C.ar    1  UNL1        0.1196
     12 N         139.0057  143.9078  157.0389 N.ar    1  UNL1       -0.2248
     13 C         137.8970  143.1607  156.3586 C.ar    1  UNL1        0.1479
     14 C         137.1940  143.3788  155.0516 C.ar    1  UNL1        0.0374
     15 C         136.0988  142.4472  154.6245 C.ar    1  UNL1        0.0046
     16 C         135.7066  141.2974  155.5044 C.ar    1  UNL1        0.0191
     17 C         136.4095  141.0793  156.8113 C.ar    1  UNL1        0.0815
     18 N         137.5048  142.0109  157.2384 N.ar    1  UNL1       -0.2874
     19 C         138.5821  140.3033  165.5183 C.ar    1  UNL1        0.1533
     20 C         139.5373  140.6483  166.6223 C.ar    1  UNL1        0.0527
     21 C         140.0843  142.0406  166.7330 C.ar    1  UNL1        0.0510
     22 C         139.6762  143.0879  165.7397 C.ar    1  UNL1        0.0160
     23 C         138.7211  142.7429  164.6357 C.ar    1  UNL1        0.0190
     24 C         138.1740  141.3505  164.5250 C.ar    1  UNL1        0.0850
     25 N         141.0394  142.3856  167.8369 N.pl3   1  UNL1       -0.3046
     26 C         140.5517  143.1274  169.0460 C.3     1  UNL1        0.1079
     27 C         141.5068  143.4724  170.1501 C.3     1  UNL1        0.0903
     28 N         142.9494  143.0756  170.0450 N.3     1  UNL1       -0.2946
     29 C         143.4371  142.3337  168.8359 C.3     1  UNL1        0.0903
     30 C         142.4821  141.9887  167.7319 C.3     1  UNL1        0.1079
     31 H         143.1526  142.4873  170.8531 H       1  UNL1        0.1233
     32 C         138.9605  137.7603  165.1438 C.3     1  UNL1        0.2525
     33 O         138.0351  138.9109  165.4077 O.3     1  UNL1       -0.4701
@<TRIPOS>BOND
     1    32    33    1
     2    33    19    1
     3    19    20   ar
     4    20    21   ar
     5    21    25    1
     6    25    26    1
     7    26    27    1
     8    27    28    1
     9    28    29    1
    10    29    30    1
    11    21    22   ar
    12    22    23   ar
    13    23    24   ar
    14    24     1    1
    15     1     3    1
    16     3     4   ar
    17     4     5   ar
    18     5     6   ar
    19     6     7    1
    20     6     8   ar
    21     8    10    1
    22    10    11   ar
    23    11    12   ar
    24    12    13   ar
    25    13    14   ar
    26    14    15   ar
    27    15    16   ar
    28    16    17   ar
    29    17    18   ar
    30     8     9   ar
    31    24    19   ar
    32     9     3   ar
    33    30    25    1
    34    18    10   ar
    35    18    13   ar
    36    28    31    1
    37     1     2    1
@<TRIPOS>MOLECULE
*****
 33 37 0 0 0
SMALL
GASTEIGER

@<TRIPOS>ATOM
      1 N         143.7202  138.8202  163.5282 N.pl3   1  UNL1       -0.2802
      2 H         144.5681  138.3456  163.3699 H       1  UNL1        0.1552
      3 C         142.7160  138.9509  162.4216 C.ar    1  UNL1        0.2208
      4 N         142.7018  137.9548  161.3003 N.ar    1  UNL1       -0.2111
      5 C         141.6976  138.0855  160.1937 C.ar    1  UNL1        0.1147
      6 C         140.7076  139.2123  160.2085 C.ar    1  UNL1        0.0960
      7 CL        139.7034  139.3430  159.1020 Cl      1  UNL1       -0.0790
      8 C         140.7218  140.2085  161.3300 C.ar    1  UNL1        0.1138
      9 N         141.7260  140.0777  162.4365 N.ar    1  UNL1       -0.2111
     10 C         139.7318  141.3353  161.3448 C.ar    1  UNL1        0.1031
     11 C         138.9798  141.8639  160.1594 C.ar    1  UNL1        0.1196
     12 N         138.1033  142.9866  160.6297 N.ar    1  UNL1       -0.2248
     13 C         138.3136  143.1520  162.1056 C.ar    1  UNL1        0.1479
     14 C         137.7186  144.1000  163.1042 C.ar    1  UNL1        0.0374
     15 C         138.1301  144.0274  164.5448 C.ar    1  UNL1        0.0046
     16 C         139.1366  143.0068  164.9868 C.ar    1  UNL1        0.0191
     17 C         139.7316  142.0588  163.9882 C.ar    1  UNL1        0.0815
     18 N         139.3201  142.1314  162.5476 N.ar    1  UNL1       -0.2874
     19 C         143.6423  140.8793  165.1106 C.ar    1  UNL1        0.1533
     20 C         143.3547  141.4718  166.4584 C.ar    1  UNL1        0.0527
     21 C         142.8575  140.5976  167.5713 C.ar    1  UNL1        0.0510
     22 C         142.6478  139.1310  167.3366 C.ar    1  UNL1        0.0160
     23 C         142.9354  138.5386  165.9888 C.ar    1  UNL1        0.0190
     24 C         143.4326  139.4127  164.8758 C.ar    1  UNL1        0.0850
     25 N         142.5699  141.1901  168.9190 N.pl3   1  UNL1       -0.3046
     26 C         143.3013  142.4200  169.3690 C.3     1  UNL1        0.1079
     27 C         143.0137  143.0126  170.7167 C.3     1  UNL1        0.0903
     28 N         141.9949  142.3752  171.6143 N.3     1  UNL1       -0.2946
     29 C         141.2636  141.1453  171.1643 C.3     1  UNL1        0.0903
     30 C         141.5511  140.5528  169.8166 C.3     1  UNL1        0.1079
     31 H         141.2876  143.0844  171.8070 H       1  UNL1        0.1233
     32 C         145.5980  141.7650  163.6475 C.3     1  UNL1        0.2525
     33 O         144.1395  141.7535  163.9977 O.3     1  UNL1       -0.4701
@<TRIPOS>BOND
     1    32    33    1
     2    33    19    1
     3    19    20   ar
     4    20    21   ar
     5    21    25    1
     6    25    26    1
     7    26    27    1
     8    27    28    1
     9    28    29    1
    10    29    30    1
    11    21    22   ar
    12    22    23   ar
    13    23    24   ar
    14    24     1    1
    15     1     3    1
    16     3     4   ar
    17     4     5   ar
    18     5     6   ar
    19     6     7    1
    20     6     8   ar
    21     8    10    1
    22    10    11   ar
    23    11    12   ar
    24    12    13   ar
    25    13    14   ar
    26    14    15   ar
    27    15    16   ar
    28    16    17   ar
    29    17    18   ar
    30     8     9   ar
    31    24    19   ar
    32     9     3   ar
    33    30    25    1
    34    18    10   ar
    35    18    13   ar
    36    28    31    1
    37     1     2    1
@<TRIPOS>MOLECULE
*****
 33 37 0 0 0
SMALL
GASTEIGER

@<TRIPOS>ATOM
      1 N         142.1346  137.4289  163.7716 N.pl3   1  UNL1       -0.2802
      2 H         141.9160  136.4691  163.7831 H       1  UNL1        0.1552
      3 C         142.4936  138.1009  162.4795 C.ar    1  UNL1        0.2208
      4 N         143.7264  138.9510  162.3935 N.ar    1  UNL1       -0.2111
      5 C         144.0854  139.6230  161.1014 C.ar    1  UNL1        0.1147
      6 C         143.2115  139.4448  159.8953 C.ar    1  UNL1        0.0960
      7 CL        143.5705  140.1168  158.6031 Cl      1  UNL1       -0.0790
      8 C         141.9786  138.5947  159.9813 C.ar    1  UNL1        0.1138
      9 N         141.6197  137.9228  161.2734 N.ar    1  UNL1       -0.2111
     10 C         141.1048  138.4165  158.7752 C.ar    1  UNL1        0.1031
     11 C         139.7603  139.0458  158.5598 C.ar    1  UNL1        0.1196
     12 N         139.2466  138.5960  157.2243 N.ar    1  UNL1       -0.2248
     13 C         140.2736  137.6887  156.6142 C.ar    1  UNL1        0.1479
     14 C         140.3114  136.9492  155.3097 C.ar    1  UNL1        0.0374
     15 C         141.4977  136.0989  154.9638 C.ar    1  UNL1        0.0046
     16 C         142.6461  135.9880  155.9223 C.ar    1  UNL1        0.0191
     17 C         142.6083  136.7274  157.2268 C.ar    1  UNL1        0.0815
     18 N         141.4221  137.5778  157.5727 N.ar    1  UNL1       -0.2874
     19 C         140.9416  139.1105  165.3525 C.ar    1  UNL1        0.1533
     20 C         140.9157  139.9009  166.6272 C.ar    1  UNL1        0.0527
     21 C         142.0569  139.8001  167.5954 C.ar    1  UNL1        0.0510
     22 C         143.2240  138.9090  167.2891 C.ar    1  UNL1        0.0160
     23 C         143.2499  138.1187  166.0145 C.ar    1  UNL1        0.0190
     24 C         142.1087  138.2193  165.0462 C.ar    1  UNL1        0.0850
     25 N         142.0310  140.5905  168.8700 N.pl3   1  UNL1       -0.3046
     26 C         141.1316  140.1707  169.9946 C.3     1  UNL1        0.1079
     27 C         141.1056  140.9611  171.2693 C.3     1  UNL1        0.0903
     28 N         141.9789  142.1712  171.4192 N.3     1  UNL1       -0.2946
     29 C         142.8784  142.5911  170.2946 C.3     1  UNL1        0.0903
     30 C         142.9044  141.8008  169.0200 C.3     1  UNL1        0.1079
     31 H         142.5774  142.0041  172.2281 H       1  UNL1        0.1233
     32 C         138.7277  138.1628  164.3776 C.3     1  UNL1        0.2525
     33 O         139.8004  139.2112  164.3842 O.3     1  UNL1       -0.4701
@<TRIPOS>BOND
     1    32    33    1
     2    33    19    1
     3    19    20   ar
     4    20    21   ar
     5    21    25    1
     6    25    26    1
     7    26    27    1
     8    27    28    1
     9    28    29    1
    10    29    30    1
    11    21    22   ar
    12    22    23   ar
    13    23    24   ar
    14    24     1    1
    15     1     3    1
    16     3     4   ar
    17     4     5   ar
    18     5     6   ar
    19     6     7    1
    20     6     8   ar
    21     8    10    1
    22    10    11   ar
    23    11    12   ar
    24    12    13   ar
    25    13    14   ar
    26    14    15   ar
    27    15    16   ar
    28    16    17   ar
    29    17    18   ar
    30     8     9   ar
    31    24    19   ar
    32     9     3   ar
    33    30    25    1
    34    18    10   ar
    35    18    13   ar
    36    28    31    1
    37     1     2    1
@<TRIPOS>MOLECULE
*****
 33 37 0 0 0
SMALL
GASTEIGER

@<TRIPOS>ATOM
      1 N         139.5747  137.4790  163.7885 N.pl3   1  UNL1       -0.2802
      2 H         139.5207  136.4989  163.8652 H       1  UNL1        0.1552
      3 C         139.4134  138.1364  162.4499 C.ar    1  UNL1        0.2208
      4 N         138.0706  138.6522  162.0246 N.ar    1  UNL1       -0.2111
      5 C         137.9093  139.3096  160.6861 C.ar    1  UNL1        0.1147
      6 C         139.0907  139.4512  159.7728 C.ar    1  UNL1        0.0960
      7 CL        138.9294  140.1086  158.4342 Cl      1  UNL1       -0.0790
      8 C         140.4336  138.9353  160.1981 C.ar    1  UNL1        0.1138
      9 N         140.5948  138.2779  161.5366 N.ar    1  UNL1       -0.2111
     10 C         141.6150  139.0768  159.2847 C.ar    1  UNL1        0.1031
     11 C         142.1708  138.0088  158.3901 C.ar    1  UNL1        0.1196
     12 N         143.3474  138.5832  157.6582 N.ar    1  UNL1       -0.2248
     13 C         143.5188  140.0062  158.1005 C.ar    1  UNL1        0.1479
     14 C         144.5115  141.0636  157.7177 C.ar    1  UNL1        0.0374
     15 C         144.4335  142.4260  158.3403 C.ar    1  UNL1        0.0046
     16 C         143.3628  142.7311  159.3456 C.ar    1  UNL1        0.0191
     17 C         142.3702  141.6737  159.7283 C.ar    1  UNL1        0.0815
     18 N         142.4481  140.3113  159.1058 N.ar    1  UNL1       -0.2874
     19 C         141.2187  138.6882  165.3963 C.ar    1  UNL1        0.1533
     20 C         141.4622  139.5239  166.6179 C.ar    1  UNL1        0.0527
     21 C         140.3052  139.9860  167.4533 C.ar    1  UNL1        0.0510
     22 C         138.9048  139.6125  167.0671 C.ar    1  UNL1        0.0160
     23 C         138.6613  138.7768  165.8455 C.ar    1  UNL1        0.0190
     24 C         139.8182  138.3146  165.0100 C.ar    1  UNL1        0.0850
     25 N         140.5488  140.8217  168.6749 N.pl3   1  UNL1       -0.3046
     26 C         140.8532  140.1613  169.9868 C.3     1  UNL1        0.1079
     27 C         141.0968  140.9969  171.2085 C.3     1  UNL1        0.0903
     28 N         141.0360  142.4929  171.1182 N.3     1  UNL1       -0.2946
     29 C         140.7316  143.1533  169.8062 C.3     1  UNL1        0.0903
     30 C         140.4880  142.3177  168.5846 C.3     1  UNL1        0.1079
     31 H         141.9450  142.8433  171.4203 H       1  UNL1        0.1233
     32 C         143.2560  139.2303  163.8778 C.3     1  UNL1        0.2525
     33 O         142.3757  138.2260  164.5609 O.3     1  UNL1       -0.4701
@<TRIPOS>BOND
     1    32    33    1
     2    33    19    1
     3    19    20   ar
     4    20    21   ar
     5    21    25    1
     6    25    26    1
     7    26    27    1
     8    27    28    1
     9    28    29    1
    10    29    30    1
    11    21    22   ar
    12    22    23   ar
    13    23    24   ar
    14    24     1    1
    15     1     3    1
    16     3     4   ar
    17     4     5   ar
    18     5     6   ar
    19     6     7    1
    20     6     8   ar
    21     8    10    1
    22    10    11   ar
    23    11    12   ar
    24    12    13   ar
    25    13    14   ar
    26    14    15   ar
    27    15    16   ar
    28    16    17   ar
    29    17    18   ar
    30     8     9   ar
    31    24    19   ar
    32     9     3   ar
    33    30    25    1
    34    18    10   ar
    35    18    13   ar
    36    28    31    1
    37     1     2    1
@<TRIPOS>MOLECULE
*****
 33 37 0 0 0
SMALL
GASTEIGER

@<TRIPOS>ATOM
      1 N         144.8976  139.4032  163.6051 N.pl3   1  UNL1       -0.2802
      2 H         145.8797  139.3425  163.6359 H       1  UNL1        0.1552
      3 C         144.1778  139.2561  162.2973 C.ar    1  UNL1        0.2208
      4 N         143.4203  137.9970  161.9957 N.ar    1  UNL1       -0.2111
      5 C         142.7004  137.8499  160.6879 C.ar    1  UNL1        0.1147
      6 C         142.7381  138.9619  159.6819 C.ar    1  UNL1        0.0960
      7 CL        142.0182  138.8148  158.3741 Cl      1  UNL1       -0.0790
      8 C         143.4956  140.2210  159.9836 C.ar    1  UNL1        0.1138
      9 N         144.2154  140.3680  161.2913 N.ar    1  UNL1       -0.2111
     10 C         143.5333  141.3330  158.9775 C.ar    1  UNL1        0.1031
     11 C         144.3826  141.3756  157.7419 C.ar    1  UNL1        0.1196
     12 N         144.1024  142.6665  157.0312 N.ar    1  UNL1       -0.2248
     13 C         143.0799  143.4217  157.8276 C.ar    1  UNL1        0.1479
     14 C         142.4237  144.7533  157.6128 C.ar    1  UNL1        0.0374
     15 C         141.4158  145.2607  158.6010 C.ar    1  UNL1        0.0046
     16 C         141.0640  144.4365  159.8039 C.ar    1  UNL1        0.0191
     17 C         141.7202  143.1049  160.0187 C.ar    1  UNL1        0.0815
     18 N         142.7282  142.5975  159.0305 N.ar    1  UNL1       -0.2874
     19 C         143.6359  141.0228  165.1972 C.ar    1  UNL1        0.1533
     20 C         142.8594  141.2623  166.4581 C.ar    1  UNL1        0.0527
     21 C         142.5681  140.1216  167.3876 C.ar    1  UNL1        0.0510
     22 C         143.0532  138.7415  167.0562 C.ar    1  UNL1        0.0160
     23 C         143.8297  138.5020  165.7954 C.ar    1  UNL1        0.0190
     24 C         144.1211  139.6427  164.8658 C.ar    1  UNL1        0.0850
     25 N         141.7916  140.3612  168.6484 N.pl3   1  UNL1       -0.3046
     26 C         140.3029  140.1776  168.6586 C.3     1  UNL1        0.1079
     27 C         139.5263  140.4171  169.9194 C.3     1  UNL1        0.0903
     28 N         140.2384  140.8402  171.1699 N.3     1  UNL1       -0.2946
     29 C         141.7271  141.0238  171.1597 C.3     1  UNL1        0.0903
     30 C         142.5037  140.7843  169.8989 C.3     1  UNL1        0.1079
     31 H         140.0335  140.1354  171.8782 H       1  UNL1        0.1233
     32 C         142.8015  142.8744  163.5769 C.3     1  UNL1        0.2525
     33 O         143.9273  142.1635  164.2677 O.3     1  UNL1       -0.4701
@<TRIPOS>BOND
     1    32    33    1
     2    33    19    1
     3    19    20   ar
     4    20    21   ar
     5    21    25    1
     6    25    26    1
     7    26    27    1
     8    27    28    1
     9    28    29    1
    10    29    30    1
    11    21    22   ar
    12    22    23   ar
    13    23    24   ar
    14    24     1    1
    15     1     3    1
    16     3     4   ar
    17     4     5   ar
    18     5     6   ar
    19     6     7    1
    20     6     8   ar
    21     8    10    1
    22    10    11   ar
    23    11    12   ar
    24    12    13   ar
    25    13    14   ar
    26    14    15   ar
    27    15    16   ar
    28    16    17   ar
    29    17    18   ar
    30     8     9   ar
    31    24    19   ar
    32     9     3   ar
    33    30    25    1
    34    18    10   ar
    35    18    13   ar
    36    28    31    1
    37     1     2    1
