@<TRIPOS>MOLECULE
*****
 30 33 0 0 0
SMALL
GASTEIGER

@<TRIPOS>ATOM
      1 C         142.9147  143.7564  164.1528 C.3     1  UNL1        0.1166
      2 N         144.0223  144.5206  163.4902 N.3     1  UNL1       -0.3162
      3 C         141.5591  143.1592  164.3889 C.3     1  UNL1        0.0739
      4 C         141.3022  142.3463  165.6230 C.3     1  UNL1        0.2039
      5 N         142.4010  142.1305  166.6212 N.pl3   1  UNL1       -0.1931
      6 C         143.7566  142.7277  166.3851 C.3     1  UNL1        0.2039
      7 C         144.0134  143.5406  165.1509 C.3     1  UNL1        0.0739
      8 H         143.6832  144.9207  162.6153 H       1  UNL1        0.1192
      9 H         144.8013  143.8913  163.2969 H       1  UNL1        0.1192
     10 C         142.1442  141.3176  167.8554 C.2     1  UNL1        0.3205
     11 N         142.7235  139.9396  167.9798 N.2     1  UNL1        0.0097
     12 C         142.4667  139.1267  169.2139 C.2     1  UNL1        0.4717
     13 N         141.6304  139.6917  170.3237 N.2     1  UNL1        0.0158
     14 C         141.0511  141.0697  170.1993 C.2     1  UNL1        0.3714
     15 N         140.1945  141.8854  171.1217 N.2     1  UNL1       -0.0339
     16 C         139.9219  143.2024  170.4576 C.2     1  UNL1        0.2323
     17 C         140.6101  143.2008  169.1247 C.2     1  UNL1        0.0486
     18 C         141.3080  141.8826  168.9651 C.3     1  UNL1        0.2428
     19 N         140.7205  144.4782  162.9637 N.am    1  UNL1       -0.3011
     20 C         142.2005  144.2375  162.9246 C.2     1  UNL1        0.2352
     21 O         142.9663  144.4780  161.6575 O.2     1  UNL1       -0.2737
     22 H         140.2179  144.3204  163.7954 H       1  UNL1        0.1497
     23 C         139.6355  146.4067  161.6021 C.3     1  UNL1        0.0262
     24 C         140.0062  144.9593  161.7355 C.3     1  UNL1        0.0956
     25 C         139.6627  143.9932  160.6408 C.ar    1  UNL1        0.0147
     26 C         138.9062  142.7375  160.9587 C.ar    1  UNL1        0.0005
     27 C         138.5627  141.7713  159.8639 C.ar    1  UNL1        0.0204
     28 C         138.9757  142.0608  158.4513 C.ar    1  UNL1        0.0989
     29 N         139.7322  143.3164  158.1333 N.ar    1  UNL1       -0.2426
     30 C         140.0757  144.2827  159.2281 C.ar    1  UNL1        0.0962
@<TRIPOS>BOND
     1    23    24    1
     2    24    19    1
     3    19    20   am
     4    20    21    2
     5    20     1    1
     6     1     2    1
     7     1     3    1
     8     3     4    1
     9     4     5    1
    10     5    10    1
    11    10    11    2
    12    11    12    1
    13    12    13    2
    14    13    14    1
    15    14    15    2
    16    15    16    1
    17    16    17    2
    18    17    18    1
    19     5     6    1
    20     6     7    1
    21    24    25    1
    22    25    26   ar
    23    26    27   ar
    24    27    28   ar
    25    28    29   ar
    26    29    30   ar
    27     7     1    1
    28    30    25   ar
    29    18    10    1
    30    18    14    1
    31    19    22    1
    32     2     8    1
    33     2     9    1
@<TRIPOS>MOLECULE
*****
 30 33 0 0 0
SMALL
GASTEIGER

@<TRIPOS>ATOM
      1 C         138.1062  140.3454  162.5828 C.3     1  UNL1        0.1166
      2 N         136.8859  141.1347  162.9537 N.3     1  UNL1       -0.3162
      3 C         139.3658  139.5444  162.7312 C.3     1  UNL1        0.0739
      4 C         140.0889  139.0513  161.5131 C.3     1  UNL1        0.2039
      5 N         139.5525  139.3592  160.1464 N.pl3   1  UNL1       -0.1931
      6 C         138.2930  140.1602  159.9980 C.3     1  UNL1        0.2039
      7 C         137.5699  140.6533  161.2163 C.3     1  UNL1        0.0739
      8 H         136.8205  141.2024  163.9694 H       1  UNL1        0.1192
      9 H         136.0553  140.6676  162.5899 H       1  UNL1        0.1192
     10 C         140.2756  138.8660  158.9283 C.2     1  UNL1        0.3205
     11 N         139.5934  137.9239  157.9812 N.2     1  UNL1        0.0097
     12 C         140.3164  137.4308  156.7631 C.2     1  UNL1        0.4717
     13 N         141.7219  137.8797  156.4920 N.2     1  UNL1        0.0158
     14 C         142.4041  138.8217  157.4391 C.2     1  UNL1        0.3714
     15 N         143.7738  139.4331  157.4339 N.2     1  UNL1       -0.0339
     16 C         143.8972  140.3041  158.6488 C.2     1  UNL1        0.2323
     17 C         142.6038  140.2311  159.4049 C.2     1  UNL1        0.0486
     18 C         141.6809  139.3149  158.6573 C.3     1  UNL1        0.2428
     19 N         138.5069  139.0173  164.7794 N.am    1  UNL1       -0.3011
     20 C         138.2188  140.3116  164.0782 C.2     1  UNL1        0.2352
     21 O         138.0434  141.5720  164.8723 O.2     1  UNL1       -0.2737
     22 H         138.6220  138.1900  164.2582 H       1  UNL1        0.1497
     23 C         137.5106  138.3971  167.0974 C.3     1  UNL1        0.0262
     24 C         138.6195  138.9834  166.2749 C.3     1  UNL1        0.0956
     25 C         139.8410  139.5358  166.9477 C.ar    1  UNL1        0.0147
     26 C         139.7332  140.1481  168.3128 C.ar    1  UNL1        0.0005
     27 C         140.9547  140.7005  168.9856 C.ar    1  UNL1        0.0204
     28 C         142.2840  140.6406  168.2933 C.ar    1  UNL1        0.0989
     29 N         142.3919  140.0284  166.9283 N.ar    1  UNL1       -0.2426
     30 C         141.1704  139.4760  166.2554 C.ar    1  UNL1        0.0962
@<TRIPOS>BOND
     1    23    24    1
     2    24    19    1
     3    19    20   am
     4    20    21    2
     5    20     1    1
     6     1     2    1
     7     1     3    1
     8     3     4    1
     9     4     5    1
    10     5    10    1
    11    10    11    2
    12    11    12    1
    13    12    13    2
    14    13    14    1
    15    14    15    2
    16    15    16    1
    17    16    17    2
    18    17    18    1
    19     5     6    1
    20     6     7    1
    21    24    25    1
    22    25    26   ar
    23    26    27   ar
    24    27    28   ar
    25    28    29   ar
    26    29    30   ar
    27     7     1    1
    28    30    25   ar
    29    18    10    1
    30    18    14    1
    31    19    22    1
    32     2     8    1
    33     2     9    1
@<TRIPOS>MOLECULE
*****
 30 33 0 0 0
SMALL
GASTEIGER

@<TRIPOS>ATOM
      1 C         143.6715  140.0312  164.2091 C.3     1  UNL1        0.1166
      2 N         144.6900  139.0843  163.6470 N.3     1  UNL1       -0.3162
      3 C         142.7274  141.1932  164.3027 C.3     1  UNL1        0.0739
      4 C         141.9229  141.4072  165.5503 C.3     1  UNL1        0.2039
      5 N         142.0623  140.4593  166.7046 N.pl3   1  UNL1       -0.1931
      6 C         143.0064  139.2975  166.6111 C.3     1  UNL1        0.2039
      7 C         143.8110  139.0834  165.3633 C.3     1  UNL1        0.0739
      8 H         144.9452  139.3797  162.7046 H       1  UNL1        0.1192
      9 H         144.2976  138.1434  163.6139 H       1  UNL1        0.1192
     10 C         141.2577  140.6734  167.9523 C.2     1  UNL1        0.3205
     11 N         139.9297  139.9952  168.1139 N.2     1  UNL1        0.0097
     12 C         139.1251  140.2092  169.3616 C.2     1  UNL1        0.4717
     13 N         139.6485  141.1016  170.4478 N.2     1  UNL1        0.0158
     14 C         140.9766  141.7799  170.2862 C.2     1  UNL1        0.3714
     15 N         141.7446  142.7085  171.1794 N.2     1  UNL1       -0.0339
     16 C         143.0239  143.0683  170.4837 C.2     1  UNL1        0.2323
     17 C         143.0465  142.3621  169.1606 C.2     1  UNL1        0.0486
     18 C         141.7812  141.5658  169.0385 C.3     1  UNL1        0.2428
     19 N         142.8080  140.5722  161.8193 N.am    1  UNL1       -0.3011
     20 C         143.8857  140.6502  162.8597 C.2     1  UNL1        0.2352
     21 O         145.1775  141.3473  162.5507 O.2     1  UNL1       -0.2737
     22 H         141.9602  140.1147  162.0221 H       1  UNL1        0.1497
     23 C         143.8129  140.4596  159.4261 C.3     1  UNL1        0.0262
     24 C         143.0221  141.1912  160.4698 C.3     1  UNL1        0.0956
     25 C         142.4454  142.5417  160.1641 C.ar    1  UNL1        0.0147
     26 C         141.3421  143.0963  161.0157 C.ar    1  UNL1        0.0005
     27 C         140.7654  144.4468  160.7101 C.ar    1  UNL1        0.0204
     28 C         141.2920  145.2427  159.5528 C.ar    1  UNL1        0.0989
     29 N         142.3953  144.6882  158.7012 N.ar    1  UNL1       -0.2426
     30 C         142.9720  143.3376  159.0069 C.ar    1  UNL1        0.0962
@<TRIPOS>BOND
     1    23    24    1
     2    24    19    1
     3    19    20   am
     4    20    21    2
     5    20     1    1
     6     1     2    1
     7     1     3    1
     8     3     4    1
     9     4     5    1
    10     5    10    1
    11    10    11    2
    12    11    12    1
    13    12    13    2
    14    13    14    1
    15    14    15    2
    16    15    16    1
    17    16    17    2
    18    17    18    1
    19     5     6    1
    20     6     7    1
    21    24    25    1
    22    25    26   ar
    23    26    27   ar
    24    27    28   ar
    25    28    29   ar
    26    29    30   ar
    27     7     1    1
    28    30    25   ar
    29    18    10    1
    30    18    14    1
    31    19    22    1
    32     2     8    1
    33     2     9    1
@<TRIPOS>MOLECULE
*****
 30 33 0 0 0
SMALL
GASTEIGER

@<TRIPOS>ATOM
      1 C         140.3210  143.9493  163.9455 C.3     1  UNL1        0.1166
      2 N         139.6007  144.5231  165.1295 N.3     1  UNL1       -0.3162
      3 C         141.2099  143.0534  163.1347 C.3     1  UNL1        0.0739
      4 C         141.3635  143.2842  161.6606 C.3     1  UNL1        0.2039
      5 N         140.6281  144.4108  160.9972 N.pl3   1  UNL1       -0.1931
      6 C         139.7392  145.3067  161.8079 C.3     1  UNL1        0.2039
      7 C         139.5857  145.0758  163.2821 C.3     1  UNL1        0.0739
      8 H         139.8346  143.9846  165.9635 H       1  UNL1        0.1192
      9 H         138.5943  144.4805  164.9685 H       1  UNL1        0.1192
     10 C         140.7817  144.6415  159.5230 C.2     1  UNL1        0.3205
     11 N         141.8189  145.6002  159.0179 N.2     1  UNL1        0.0097
     12 C         141.9725  145.8309  157.5438 C.2     1  UNL1        0.4717
     13 N         141.0888  145.1030  156.5746 N.2     1  UNL1        0.0158
     14 C         140.0515  144.1444  157.0797 C.2     1  UNL1        0.3714
     15 N         139.0442  143.2896  156.3693 N.2     1  UNL1       -0.0339
     16 C         138.2681  142.5306  157.4044 C.2     1  UNL1        0.2323
     17 C         138.7957  142.9162  158.7546 C.2     1  UNL1        0.0486
     18 C         139.8980  143.9136  158.5539 C.3     1  UNL1        0.2428
     19 N         139.8591  142.5401  166.0787 N.am    1  UNL1       -0.3011
     20 C         140.8062  143.0220  165.0201 C.2     1  UNL1        0.2352
     21 O         142.2384  142.5764  165.0359 O.2     1  UNL1       -0.2737
     22 H         138.9191  142.8326  166.0683 H       1  UNL1        0.1497
     23 C         139.9858  140.1570  167.1057 C.3     1  UNL1        0.0262
     24 C         140.3442  141.6128  167.1533 C.3     1  UNL1        0.0956
     25 C         141.1877  142.1412  168.2755 C.ar    1  UNL1        0.0147
     26 C         142.5952  141.6526  168.4501 C.ar    1  UNL1        0.0005
     27 C         143.4387  142.1810  169.5722 C.ar    1  UNL1        0.0204
     28 C         142.8748  143.1980  170.5197 C.ar    1  UNL1        0.0989
     29 N         141.4674  143.6866  170.3451 N.ar    1  UNL1       -0.2426
     30 C         140.6238  143.1582  169.2230 C.ar    1  UNL1        0.0962
@<TRIPOS>BOND
     1    23    24    1
     2    24    19    1
     3    19    20   am
     4    20    21    2
     5    20     1    1
     6     1     2    1
     7     1     3    1
     8     3     4    1
     9     4     5    1
    10     5    10    1
    11    10    11    2
    12    11    12    1
    13    12    13    2
    14    13    14    1
    15    14    15    2
    16    15    16    1
    17    16    17    2
    18    17    18    1
    19     5     6    1
    20     6     7    1
    21    24    25    1
    22    25    26   ar
    23    26    27   ar
    24    27    28   ar
    25    28    29   ar
    26    29    30   ar
    27     7     1    1
    28    30    25   ar
    29    18    10    1
    30    18    14    1
    31    19    22    1
    32     2     8    1
    33     2     9    1
@<TRIPOS>MOLECULE
*****
 30 33 0 0 0
SMALL
GASTEIGER

@<TRIPOS>ATOM
      1 C         139.5712  144.2721  162.0216 C.3     1  UNL1        0.1166
      2 N         139.1829  145.6796  161.6782 N.3     1  UNL1       -0.3162
      3 C         140.1752  142.9051  161.8927 C.3     1  UNL1        0.0739
      4 C         140.0232  141.9100  163.0046 C.3     1  UNL1        0.2039
      5 N         139.2671  142.2818  164.2457 N.pl3   1  UNL1       -0.1931
      6 C         138.6631  143.6488  164.3747 C.3     1  UNL1        0.2039
      7 C         138.8152  144.6439  163.2627 C.3     1  UNL1        0.0739
      8 H         139.5432  145.9158  160.7537 H       1  UNL1        0.1192
      9 H         139.5753  146.3188  162.3695 H       1  UNL1        0.1192
     10 C         139.1151  141.2867  165.3577 C.2     1  UNL1        0.3205
     11 N         138.2138  140.1002  165.1844 N.2     1  UNL1        0.0097
     12 C         138.0618  139.1051  166.2964 C.2     1  UNL1        0.4717
     13 N         138.8110  139.2963  167.5817 N.2     1  UNL1        0.0158
     14 C         139.7123  140.4828  167.7550 C.2     1  UNL1        0.3714
     15 N         140.5716  140.9317  168.8996 N.2     1  UNL1       -0.0339
     16 C         141.2548  142.2043  168.4949 C.2     1  UNL1        0.2323
     17 C         140.8176  142.5419  167.1003 C.2     1  UNL1        0.0486
     18 C         139.8643  141.4779  166.6430 C.3     1  UNL1        0.2428
     19 N         139.5655  143.6953  159.4885 N.am    1  UNL1       -0.3011
     20 C         140.1924  144.3891  160.6613 C.2     1  UNL1        0.2352
     21 O         141.4404  145.1998  160.4739 O.2     1  UNL1       -0.2737
     22 H         138.7463  143.1632  159.6115 H       1  UNL1        0.1497
     23 C         141.3475  142.9380  157.7561 C.3     1  UNL1        0.0262
     24 C         140.1867  143.8122  158.1281 C.3     1  UNL1        0.0956
     25 C         139.6470  144.8032  157.1399 C.ar    1  UNL1        0.0147
     26 C         138.7466  144.3432  156.0318 C.ar    1  UNL1        0.0005
     27 C         138.2070  145.3343  155.0436 C.ar    1  UNL1        0.0204
     28 C         138.5678  146.7853  155.1635 C.ar    1  UNL1        0.0989
     29 N         139.4681  147.2453  156.2714 N.ar    1  UNL1       -0.2426
     30 C         140.0078  146.2543  157.2597 C.ar    1  UNL1        0.0962
@<TRIPOS>BOND
     1    23    24    1
     2    24    19    1
     3    19    20   am
     4    20    21    2
     5    20     1    1
     6     1     2    1
     7     1     3    1
     8     3     4    1
     9     4     5    1
    10     5    10    1
    11    10    11    2
    12    11    12    1
    13    12    13    2
    14    13    14    1
    15    14    15    2
    16    15    16    1
    17    16    17    2
    18    17    18    1
    19     5     6    1
    20     6     7    1
    21    24    25    1
    22    25    26   ar
    23    26    27   ar
    24    27    28   ar
    25    28    29   ar
    26    29    30   ar
    27     7     1    1
    28    30    25   ar
    29    18    10    1
    30    18    14    1
    31    19    22    1
    32     2     8    1
    33     2     9    1
@<TRIPOS>MOLECULE
*****
 30 33 0 0 0
SMALL
GASTEIGER

@<TRIPOS>ATOM
      1 C         143.5520  140.0072  164.2334 C.3     1  UNL1        0.1166
      2 N         143.8132  138.7033  163.5394 N.3     1  UNL1       -0.3162
      3 C         143.3829  141.4827  164.4443 C.3     1  UNL1        0.0739
      4 C         143.0393  142.0112  165.8052 C.3     1  UNL1        0.2039
      5 N         142.8647  141.0643  166.9555 N.pl3   1  UNL1       -0.1931
      6 C         143.0337  139.5889  166.7447 C.3     1  UNL1        0.2039
      7 C         143.3774  139.0603  165.3836 C.3     1  UNL1        0.0739
      8 H         144.0156  138.8768  162.5548 H       1  UNL1        0.1192
      9 H         142.9901  138.1059  163.6172 H       1  UNL1        0.1192
     10 C         142.5210  141.5930  168.3166 C.2     1  UNL1        0.3205
     11 N         143.4765  142.5018  169.0314 N.2     1  UNL1        0.0097
     12 C         143.1329  143.0304  170.3924 C.2     1  UNL1        0.4717
     13 N         141.8337  142.6502  171.0387 N.2     1  UNL1        0.0158
     14 C         140.8782  141.7414  170.3238 C.2     1  UNL1        0.3714
     15 N         139.5339  141.1971  170.7068 N.2     1  UNL1       -0.0339
     16 C         139.0468  140.3320  169.5823 C.2     1  UNL1        0.2323
     17 C         140.0900  140.3417  168.5045 C.2     1  UNL1        0.0486
     18 C         141.2218  141.2128  168.9628 C.3     1  UNL1        0.2428
     19 N         142.7372  140.4332  161.8035 N.am    1  UNL1       -0.3011
     20 C         143.8173  140.5012  162.8422 C.2     1  UNL1        0.2352
     21 O         145.1626  141.0633  162.4896 O.2     1  UNL1       -0.2737
     22 H         141.8542  140.0644  162.0349 H       1  UNL1        0.1497
     23 C         143.7883  140.0828  159.4535 C.3     1  UNL1        0.0262
     24 C         143.0024  140.9273  160.4122 C.3     1  UNL1        0.0956
     25 C         142.4817  142.2659  159.9797 C.ar    1  UNL1        0.0147
     26 C         141.9162  142.4411  158.6015 C.ar    1  UNL1        0.0005
     27 C         141.3956  143.7796  158.1690 C.ar    1  UNL1        0.0204
     28 C         141.4404  144.9431  159.1147 C.ar    1  UNL1        0.0989
     29 N         142.0059  144.7680  160.4929 N.ar    1  UNL1       -0.2426
     30 C         142.5266  143.4293  160.9255 C.ar    1  UNL1        0.0962
@<TRIPOS>BOND
     1    23    24    1
     2    24    19    1
     3    19    20   am
     4    20    21    2
     5    20     1    1
     6     1     2    1
     7     1     3    1
     8     3     4    1
     9     4     5    1
    10     5    10    1
    11    10    11    2
    12    11    12    1
    13    12    13    2
    14    13    14    1
    15    14    15    2
    16    15    16    1
    17    16    17    2
    18    17    18    1
    19     5     6    1
    20     6     7    1
    21    24    25    1
    22    25    26   ar
    23    26    27   ar
    24    27    28   ar
    25    28    29   ar
    26    29    30   ar
    27     7     1    1
    28    30    25   ar
    29    18    10    1
    30    18    14    1
    31    19    22    1
    32     2     8    1
    33     2     9    1
@<TRIPOS>MOLECULE
*****
 30 33 0 0 0
SMALL
GASTEIGER

@<TRIPOS>ATOM
      1 C         138.4784  140.8563  162.2178 C.3     1  UNL1        0.1166
      2 N         137.1312  140.4885  161.6704 N.3     1  UNL1       -0.3162
      3 C         139.7895  141.5679  162.3754 C.3     1  UNL1        0.0739
      4 C         140.7368  141.1620  163.4652 C.3     1  UNL1        0.2039
      5 N         140.3731  140.0446  164.3976 N.pl3   1  UNL1       -0.1931
      6 C         139.0620  139.3330  164.2400 C.3     1  UNL1        0.2039
      7 C         138.1147  139.7390  163.1501 C.3     1  UNL1        0.0739
      8 H         136.9103  141.0910  160.8776 H       1  UNL1        0.1192
      9 H         136.4248  140.6091  162.3963 H       1  UNL1        0.1192
     10 C         141.3205  139.6387  165.4874 C.2     1  UNL1        0.3205
     11 N         142.5603  138.8635  165.1532 N.2     1  UNL1        0.0097
     12 C         143.5077  138.4577  166.2430 C.2     1  UNL1        0.4717
     13 N         143.2152  138.8270  167.6672 N.2     1  UNL1        0.0158
     14 C         141.9753  139.6022  168.0014 C.2     1  UNL1        0.3714
     15 N         141.4266  140.1053  169.3036 N.2     1  UNL1       -0.0339
     16 C         140.1402  140.8220  169.0186 C.2     1  UNL1        0.2323
     17 C         139.8937  140.7620  167.5402 C.2     1  UNL1        0.0486
     18 C         141.0279  140.0081  166.9115 C.3     1  UNL1        0.2428
     19 N         138.9643  141.5239  159.7545 N.am    1  UNL1       -0.3011
     20 C         138.3743  141.8460  161.0954 C.2     1  UNL1        0.2352
     21 O         137.6803  143.1577  161.3140 O.2     1  UNL1       -0.2737
     22 H         139.4198  140.6629  159.6110 H       1  UNL1        0.1497
     23 C         137.7066  142.4444  157.6758 C.3     1  UNL1        0.0262
     24 C         138.8602  142.5135  158.6320 C.3     1  UNL1        0.0956
     25 C         139.9098  143.5722  158.4658 C.ar    1  UNL1        0.0147
     26 C         139.8178  144.5478  157.3302 C.ar    1  UNL1        0.0005
     27 C         140.8673  145.6065  157.1640 C.ar    1  UNL1        0.0204
     28 C         142.0089  145.6895  158.1335 C.ar    1  UNL1        0.0989
     29 N         142.1010  144.7139  159.2691 N.ar    1  UNL1       -0.2426
     30 C         141.0514  143.6552  159.4354 C.ar    1  UNL1        0.0962
@<TRIPOS>BOND
     1    23    24    1
     2    24    19    1
     3    19    20   am
     4    20    21    2
     5    20     1    1
     6     1     2    1
     7     1     3    1
     8     3     4    1
     9     4     5    1
    10     5    10    1
    11    10    11    2
    12    11    12    1
    13    12    13    2
    14    13    14    1
    15    14    15    2
    16    15    16    1
    17    16    17    2
    18    17    18    1
    19     5     6    1
    20     6     7    1
    21    24    25    1
    22    25    26   ar
    23    26    27   ar
    24    27    28   ar
    25    28    29   ar
    26    29    30   ar
    27     7     1    1
    28    30    25   ar
    29    18    10    1
    30    18    14    1
    31    19    22    1
    32     2     8    1
    33     2     9    1
@<TRIPOS>MOLECULE
*****
 30 33 0 0 0
SMALL
GASTEIGER

@<TRIPOS>ATOM
      1 C         143.4834  140.1272  164.2763 C.3     1  UNL1        0.1166
      2 N         143.7180  138.8335  163.5544 N.3     1  UNL1       -0.3162
      3 C         143.3479  141.6011  164.5198 C.3     1  UNL1        0.0739
      4 C         143.0084  142.1068  165.8905 C.3     1  UNL1        0.2039
      5 N         142.8043  141.1385  167.0179 N.pl3   1  UNL1       -0.1931
      6 C         142.9397  139.6646  166.7745 C.3     1  UNL1        0.2039
      7 C         143.2793  139.1590  165.4037 C.3     1  UNL1        0.0739
      8 H         143.9306  139.0243  162.5752 H       1  UNL1        0.1192
      9 H         142.8806  138.2542  163.6138 H       1  UNL1        0.1192
     10 C         142.4647  141.6443  168.3886 C.2     1  UNL1        0.3205
     11 N         143.4169  142.5507  169.1108 N.2     1  UNL1        0.0097
     12 C         143.0774  143.0565  170.4815 C.2     1  UNL1        0.4717
     13 N         141.7856  142.6557  171.1301 N.2     1  UNL1        0.0158
     14 C         140.8333  141.7493  170.4079 C.2     1  UNL1        0.3714
     15 N         139.4962  141.1878  170.7912 N.2     1  UNL1       -0.0339
     16 C         139.0094  140.3351  169.6572 C.2     1  UNL1        0.2323
     17 C         140.0456  140.3695  168.5732 C.2     1  UNL1        0.0486
     18 C         141.1729  141.2436  169.0372 C.3     1  UNL1        0.2428
     19 N         142.6380  140.9309  161.9549 N.am    1  UNL1       -0.3011
     20 C         143.7690  140.6461  162.8983 C.2     1  UNL1        0.2352
     21 O         145.1854  140.8803  162.4636 O.2     1  UNL1       -0.2737
     22 H         141.7084  140.7772  162.2402 H       1  UNL1        0.1497
     23 C         143.1862  142.9116  160.3653 C.3     1  UNL1        0.0262
     24 C         142.9236  141.4499  160.5768 C.3     1  UNL1        0.0956
     25 C         142.9464  140.5073  159.4102 C.ar    1  UNL1        0.0147
     26 C         141.8653  139.4791  159.2555 C.ar    1  UNL1        0.0005
     27 C         141.8881  138.5365  158.0890 C.ar    1  UNL1        0.0204
     28 C         142.9920  138.6221  157.0770 C.ar    1  UNL1        0.0989
     29 N         144.0731  139.6503  157.2316 N.ar    1  UNL1       -0.2426
     30 C         144.0503  140.5930  158.3983 C.ar    1  UNL1        0.0962
@<TRIPOS>BOND
     1    23    24    1
     2    24    19    1
     3    19    20   am
     4    20    21    2
     5    20     1    1
     6     1     2    1
     7     1     3    1
     8     3     4    1
     9     4     5    1
    10     5    10    1
    11    10    11    2
    12    11    12    1
    13    12    13    2
    14    13    14    1
    15    14    15    2
    16    15    16    1
    17    16    17    2
    18    17    18    1
    19     5     6    1
    20     6     7    1
    21    24    25    1
    22    25    26   ar
    23    26    27   ar
    24    27    28   ar
    25    28    29   ar
    26    29    30   ar
    27     7     1    1
    28    30    25   ar
    29    18    10    1
    30    18    14    1
    31    19    22    1
    32     2     8    1
    33     2     9    1
@<TRIPOS>MOLECULE
*****
 30 33 0 0 0
SMALL
GASTEIGER

@<TRIPOS>ATOM
      1 C         138.4744  140.8648  162.3949 C.3     1  UNL1        0.1166
      2 N         137.0894  140.5572  161.9082 N.3     1  UNL1       -0.3162
      3 C         139.8301  141.5014  162.4789 C.3     1  UNL1        0.0739
      4 C         140.7894  141.0838  163.5536 C.3     1  UNL1        0.2039
      5 N         140.3932  140.0295  164.5445 N.pl3   1  UNL1       -0.1931
      6 C         139.0376  139.3929  164.4605 C.3     1  UNL1        0.2039
      7 C         138.0782  139.8106  163.3857 C.3     1  UNL1        0.0739
      8 H         136.8768  141.1390  161.0978 H       1  UNL1        0.1192
      9 H         136.4173  140.7500  162.6509 H       1  UNL1        0.1192
     10 C         141.3527  139.6119  165.6193 C.2     1  UNL1        0.3205
     11 N         142.5708  138.8106  165.2672 N.2     1  UNL1        0.0097
     12 C         143.5302  138.3930  166.3419 C.2     1  UNL1        0.4717
     13 N         143.2716  138.7767  167.7688 N.2     1  UNL1        0.0158
     14 C         142.0534  139.5781  168.1208 C.2     1  UNL1        0.3714
     15 N         141.5390  140.0998  169.4297 N.2     1  UNL1       -0.0339
     16 C         140.2617  140.8398  169.1639 C.2     1  UNL1        0.2323
     17 C         139.9866  140.7755  167.6907 C.2     1  UNL1        0.0486
     18 C         141.0940  139.9957  167.0461 C.3     1  UNL1        0.2428
     19 N         139.0197  141.4495  159.9230 N.am    1  UNL1       -0.3011
     20 C         138.3896  141.8122  161.2351 C.2     1  UNL1        0.2352
     21 O         137.6749  143.1221  161.3873 O.2     1  UNL1       -0.2737
     22 H         139.4888  140.5898  159.8231 H       1  UNL1        0.1497
     23 C         139.8424  143.5897  158.7012 C.3     1  UNL1        0.0262
     24 C         138.9350  142.3969  158.7631 C.3     1  UNL1        0.0956
     25 C         137.9429  142.1515  157.6652 C.ar    1  UNL1        0.0147
     26 C         137.6904  143.2094  156.6322 C.ar    1  UNL1        0.0005
     27 C         136.6983  142.9639  155.5343 C.ar    1  UNL1        0.0204
     28 C         135.9586  141.6606  155.4694 C.ar    1  UNL1        0.0989
     29 N         136.2111  140.6027  156.5023 N.ar    1  UNL1       -0.2426
     30 C         137.2033  140.8481  157.6003 C.ar    1  UNL1        0.0962
@<TRIPOS>BOND
     1    23    24    1
     2    24    19    1
     3    19    20   am
     4    20    21    2
     5    20     1    1
     6     1     2    1
     7     1     3    1
     8     3     4    1
     9     4     5    1
    10     5    10    1
    11    10    11    2
    12    11    12    1
    13    12    13    2
    14    13    14    1
    15    14    15    2
    16    15    16    1
    17    16    17    2
    18    17    18    1
    19     5     6    1
    20     6     7    1
    21    24    25    1
    22    25    26   ar
    23    26    27   ar
    24    27    28   ar
    25    28    29   ar
    26    29    30   ar
    27     7     1    1
    28    30    25   ar
    29    18    10    1
    30    18    14    1
    31    19    22    1
    32     2     8    1
    33     2     9    1
