@<TRIPOS>MOLECULE
*****
 38 41 0 0 0
SMALL
GASTEIGER

@<TRIPOS>ATOM
      1 O         141.3354  140.2178  163.1047 O.2     1  UNL1       -0.2701
      2 C         142.5180  139.3980  162.6812 C.2     1  UNL1        0.2474
      3 N         143.3975  138.7601  163.7154 N.am    1  UNL1       -0.2986
      4 H         144.1736  138.2220  163.4374 H       1  UNL1        0.1498
      5 C         143.0944  138.9420  165.1732 C.3     1  UNL1        0.1200
      6 C         143.8615  138.1647  166.2014 C.3     1  UNL1        0.2250
      7 O         143.5583  138.3466  167.6591 O.3     1  UNL1       -0.4740
      8 C         142.4881  139.3059  168.0886 C.ar    1  UNL1        0.1346
      9 C         142.1850  139.4878  169.5464 C.ar    1  UNL1        0.0366
     10 C         141.1148  140.4470  169.9759 C.ar    1  UNL1        0.0031
     11 C         140.3477  141.2244  168.9476 C.ar    1  UNL1       -0.0001
     12 C         140.6508  141.0424  167.4899 C.ar    1  UNL1        0.0005
     13 C         141.7210  140.0832  167.0604 C.ar    1  UNL1        0.0136
     14 C         142.0241  139.9013  165.6027 C.3     1  UNL1        0.0528
     15 C         139.8837  141.8198  166.4617 C.ar    1  UNL1        0.0190
     16 C         140.1205  143.2926  166.3043 C.ar    1  UNL1        0.0028
     17 C         139.3534  144.0699  165.2760 C.ar    1  UNL1        0.0172
     18 CA        138.3495  143.3744  164.4052 C.ar    1  UNL1        0.0885
     19 N         138.1126  141.9016  164.5626 N.ar    1  UNL1       -0.2457
     20 C         138.8797  141.1243  165.5908 C.ar    1  UNL1        0.0985
     21 C         137.5823  144.1517  163.3769 C.3     1  UNL1        0.1829
     22 O         138.3147  144.9681  162.3536 O.3     1  UNL1       -0.3760
     23 H         138.7800  145.6965  162.7938 H       1  UNL1        0.2110
     24 C         142.8211  139.2161  161.2234 C.ar    1  UNL1        0.0727
     25 C         143.2131  140.3970  160.3858 C.ar    1  UNL1        0.0109
     26 C         143.5162  140.2151  158.9281 C.ar    1  UNL1        0.0579
     27 C         143.4273  138.8522  158.3080 C.ar    1  UNL1        0.2249
     28 N         143.0352  137.6712  159.1456 N.ar    1  UNL1       -0.2100
     29 C         142.7321  137.8532  160.6033 C.ar    1  UNL1        0.1065
     30 O         143.7304  138.6702  156.8502 O.3     1  UNL1       -0.4575
     31 C         143.2024  137.4722  156.1182 C.3     1  UNL1        0.2390
     32 C         144.1535  136.5087  155.4723 C.3     1  UNL1        0.1897
     33 O         143.8498  135.0397  155.4745 O.3     1  UNL1       -0.3417
     34 C         143.2984  134.3897  156.7087 C.3     1  UNL1        0.2459
     35 C         144.1832  133.5317  157.5636 C.3     1  UNL1        0.4248
     36 F         145.0681  132.6736  158.4185 F       1  UNL1       -0.1674
     37 F         143.6689  134.2239  158.7908 F       1  UNL1       -0.1674
     38 F         144.6976  132.8394  156.3364 F       1  UNL1       -0.1674
@<TRIPOS>BOND
     1     1     2    2
     2     2     3   am
     3     5     3    1
     4     5     6    1
     5     6     7    1
     6     7     8    1
     7     8     9   ar
     8     9    10   ar
     9    10    11   ar
    10    11    12   ar
    11    12    15    1
    12    15    16   ar
    13    16    17   ar
    14    17    18   ar
    15    18    21    1
    16    21    22    1
    17    18    19   ar
    18    19    20   ar
    19    12    13   ar
    20    13    14    1
    21     2    24    1
    22    24    25   ar
    23    25    26   ar
    24    26    27   ar
    25    27    30    1
    26    30    31    1
    27    31    32    1
    28    32    33    1
    29    33    34    1
    30    34    35    1
    31    35    36    1
    32    35    37    1
    33    35    38    1
    34    27    28   ar
    35    28    29   ar
    36    14     5    1
    37    29    24   ar
    38    13     8   ar
    39    20    15   ar
    40     3     4    1
    41    22    23    1
@<TRIPOS>MOLECULE
*****
 38 41 0 0 0
SMALL
GASTEIGER

@<TRIPOS>ATOM
      1 O         139.7465  138.8157  161.8781 O.2     1  UNL1       -0.2701
      2 C         141.1455  138.7053  161.3485 C.2     1  UNL1        0.2474
      3 N         142.3132  138.9434  162.2594 N.am    1  UNL1       -0.2986
      4 H         143.2315  138.8709  161.9117 H       1  UNL1        0.1498
      5 C         142.0819  139.2918  163.6999 C.3     1  UNL1        0.1200
      6 C         142.3715  138.2828  164.7714 C.3     1  UNL1        0.2250
      7 O         142.1402  138.6312  166.2119 O.3     1  UNL1       -0.4740
      8 C         141.6193  139.9886  166.5809 C.ar    1  UNL1        0.1346
      9 C         141.3880  140.3370  168.0215 C.ar    1  UNL1        0.0366
     10 C         140.8671  141.6944  168.3905 C.ar    1  UNL1        0.0031
     11 C         140.5775  142.7034  167.3189 C.ar    1  UNL1       -0.0001
     12 C         140.8088  142.3550  165.8785 C.ar    1  UNL1        0.0005
     13 C         141.3297  140.9976  165.5094 C.ar    1  UNL1        0.0136
     14 C         141.5610  140.6492  164.0690 C.3     1  UNL1        0.0528
     15 C         140.5192  143.3639  164.8070 C.ar    1  UNL1        0.0190
     16 C         141.6133  144.2580  164.3033 C.ar    1  UNL1        0.0028
     17 C         141.3236  145.2670  163.2317 C.ar    1  UNL1        0.0172
     18 CA        139.9400  145.3819  162.6640 C.ar    1  UNL1        0.0885
     19 N         138.8460  144.4878  163.1677 N.ar    1  UNL1       -0.2457
     20 C         139.1356  143.4788  164.2392 C.ar    1  UNL1        0.0985
     21 C         139.6504  146.3909  161.5925 C.3     1  UNL1        0.1829
     22 O         139.6566  145.9767  160.1508 O.3     1  UNL1       -0.3760
     23 H         140.5553  145.7188  159.8924 H       1  UNL1        0.2110
     24 C         141.3768  138.3569  159.9079 C.ar    1  UNL1        0.0727
     25 C         140.2427  138.4245  158.9285 C.ar    1  UNL1        0.0109
     26 C         140.4741  138.0761  157.4880 C.ar    1  UNL1        0.0579
     27 C         141.8395  137.6601  157.0269 C.ar    1  UNL1        0.2249
     28 N         142.9736  137.5926  158.0063 N.ar    1  UNL1       -0.2100
     29 C         142.7422  137.9409  159.4468 C.ar    1  UNL1        0.1065
     30 O         142.0708  137.3117  155.5864 O.3     1  UNL1       -0.4575
     31 C         142.6523  135.9781  155.2213 C.3     1  UNL1        0.2390
     32 C         141.8161  134.7383  155.3372 C.3     1  UNL1        0.1897
     33 O         142.2294  133.6394  156.2709 O.3     1  UNL1       -0.3417
     34 C         143.5776  132.9984  156.1247 C.3     1  UNL1        0.2459
     35 C         144.5049  132.9251  157.3016 C.3     1  UNL1        0.4248
     36 F         145.4320  132.8519  158.4784 F       1  UNL1       -0.1674
     37 F         145.4100  132.0100  156.5314 F       1  UNL1       -0.1674
     38 F         143.5997  133.8403  158.0717 F       1  UNL1       -0.1674
@<TRIPOS>BOND
     1     1     2    2
     2     2     3   am
     3     5     3    1
     4     5     6    1
     5     6     7    1
     6     7     8    1
     7     8     9   ar
     8     9    10   ar
     9    10    11   ar
    10    11    12   ar
    11    12    15    1
    12    15    16   ar
    13    16    17   ar
    14    17    18   ar
    15    18    21    1
    16    21    22    1
    17    18    19   ar
    18    19    20   ar
    19    12    13   ar
    20    13    14    1
    21     2    24    1
    22    24    25   ar
    23    25    26   ar
    24    26    27   ar
    25    27    30    1
    26    30    31    1
    27    31    32    1
    28    32    33    1
    29    33    34    1
    30    34    35    1
    31    35    36    1
    32    35    37    1
    33    35    38    1
    34    27    28   ar
    35    28    29   ar
    36    14     5    1
    37    29    24   ar
    38    13     8   ar
    39    20    15   ar
    40     3     4    1
    41    22    23    1
@<TRIPOS>MOLECULE
*****
 38 41 0 0 0
SMALL
GASTEIGER

@<TRIPOS>ATOM
      1 O         139.3003  138.5123  160.2140 O.2     1  UNL1       -0.2701
      2 C         140.2478  139.1187  159.2218 C.2     1  UNL1        0.2474
      3 N         140.4959  140.5980  159.2289 N.am    1  UNL1       -0.2986
      4 H         141.1178  140.9959  158.5777 H       1  UNL1        0.1498
      5 C         139.7965  141.4710  160.2283 C.3     1  UNL1        0.1200
      6 C         138.7152  142.4082  159.7786 C.3     1  UNL1        0.2250
      7 O         138.0159  143.2812  160.7780 O.3     1  UNL1       -0.4740
      8 C         138.3978  143.2169  162.2271 C.ar    1  UNL1        0.1346
      9 C         137.6984  144.0899  163.2265 C.ar    1  UNL1        0.0366
     10 C         138.0804  144.0256  164.6756 C.ar    1  UNL1        0.0031
     11 C         139.1618  143.0883  165.1254 C.ar    1  UNL1       -0.0001
     12 C         139.8611  142.2154  164.1260 C.ar    1  UNL1        0.0005
     13 C         139.4792  142.2796  162.6769 C.ar    1  UNL1        0.0136
     14 C         140.1785  141.4067  161.6775 C.3     1  UNL1        0.0528
     15 C         140.9424  141.2781  164.5757 C.ar    1  UNL1        0.0190
     16 C         142.3707  141.7359  164.5972 C.ar    1  UNL1        0.0028
     17 C         143.4520  140.7986  165.0470 C.ar    1  UNL1        0.0172
     18 CA        143.1051  139.4036  165.4752 C.ar    1  UNL1        0.0885
     19 N         141.6768  138.9458  165.4537 N.ar    1  UNL1       -0.2457
     20 C         140.5955  139.8830  165.0040 C.ar    1  UNL1        0.0985
     21 C         144.1864  138.4663  165.9250 C.3     1  UNL1        0.1829
     22 O         144.0589  137.7479  167.2356 O.3     1  UNL1       -0.3760
     23 H         144.0894  138.3910  167.9611 H       1  UNL1        0.2110
     24 C         140.9472  138.2457  158.2224 C.ar    1  UNL1        0.0727
     25 C         140.2132  137.7587  157.0084 C.ar    1  UNL1        0.0109
     26 C         140.9126  136.8857  156.0090 C.ar    1  UNL1        0.0579
     27 C         142.3461  136.4997  156.2238 C.ar    1  UNL1        0.2249
     28 N         143.0802  136.9867  157.4378 N.ar    1  UNL1       -0.2100
     29 C         142.3807  137.8597  158.4371 C.ar    1  UNL1        0.1065
     30 O         143.0455  135.6267  155.2243 O.3     1  UNL1       -0.4575
     31 C         142.3634  134.4017  154.6913 C.3     1  UNL1        0.2390
     32 C         141.6875  133.4499  155.6332 C.3     1  UNL1        0.1897
     33 O         142.4614  132.3152  156.2363 O.3     1  UNL1       -0.3417
     34 C         143.9523  132.2584  156.0819 C.3     1  UNL1        0.2459
     35 C         144.8372  132.4132  157.2832 C.3     1  UNL1        0.4248
     36 F         145.7220  132.5681  158.4844 F       1  UNL1       -0.1674
     37 F         145.2186  130.9657  157.1888 F       1  UNL1       -0.1674
     38 F         144.4557  133.8608  157.3776 F       1  UNL1       -0.1674
@<TRIPOS>BOND
     1     1     2    2
     2     2     3   am
     3     5     3    1
     4     5     6    1
     5     6     7    1
     6     7     8    1
     7     8     9   ar
     8     9    10   ar
     9    10    11   ar
    10    11    12   ar
    11    12    15    1
    12    15    16   ar
    13    16    17   ar
    14    17    18   ar
    15    18    21    1
    16    21    22    1
    17    18    19   ar
    18    19    20   ar
    19    12    13   ar
    20    13    14    1
    21     2    24    1
    22    24    25   ar
    23    25    26   ar
    24    26    27   ar
    25    27    30    1
    26    30    31    1
    27    31    32    1
    28    32    33    1
    29    33    34    1
    30    34    35    1
    31    35    36    1
    32    35    37    1
    33    35    38    1
    34    27    28   ar
    35    28    29   ar
    36    14     5    1
    37    29    24   ar
    38    13     8   ar
    39    20    15   ar
    40     3     4    1
    41    22    23    1
@<TRIPOS>MOLECULE
*****
 38 41 0 0 0
SMALL
GASTEIGER

@<TRIPOS>ATOM
      1 O         137.9226  143.6283  162.9344 O.2     1  UNL1       -0.2701
      2 C         139.1940  142.9089  163.2749 C.2     1  UNL1        0.2474
      3 N         140.3836  143.0182  162.3679 N.am    1  UNL1       -0.2986
      4 H         141.2181  142.5461  162.5914 H       1  UNL1        0.1498
      5 C         140.3018  143.8469  161.1202 C.3     1  UNL1        0.1200
      6 C         140.3559  145.3432  161.2088 C.3     1  UNL1        0.2250
      7 O         140.2741  146.1718  159.9611 O.3     1  UNL1       -0.4740
      8 C         140.1382  145.5041  158.6248 C.ar    1  UNL1        0.1346
      9 C         140.0565  146.3327  157.3771 C.ar    1  UNL1        0.0366
     10 C         139.9206  145.6650  156.0409 C.ar    1  UNL1        0.0031
     11 C         139.8665  144.1685  155.9523 C.ar    1  UNL1       -0.0001
     12 C         139.9483  143.3399  157.2000 C.ar    1  UNL1        0.0005
     13 C         140.0842  144.0077  158.5362 C.ar    1  UNL1        0.0136
     14 C         140.1660  143.1791  159.7839 C.3     1  UNL1        0.0528
     15 C         139.8942  141.8435  157.1114 C.ar    1  UNL1        0.0190
     16 C         141.1515  141.0602  156.8757 C.ar    1  UNL1        0.0028
     17 C         141.0974  139.5638  156.7871 C.ar    1  UNL1        0.0172
     18 CA        139.7860  138.8507  156.9341 C.ar    1  UNL1        0.0885
     19 N         138.5286  139.6340  157.1698 N.ar    1  UNL1       -0.2457
     20 C         138.5827  141.1304  157.2584 C.ar    1  UNL1        0.0985
     21 C         139.7318  137.3542  156.8455 C.3     1  UNL1        0.1829
     22 O         138.6953  136.6907  155.9880 O.3     1  UNL1       -0.3760
     23 H         137.8138  136.8637  156.3540 H       1  UNL1        0.2110
     24 C         139.2758  142.0802  164.5226 C.ar    1  UNL1        0.0727
     25 C         140.1509  142.5198  165.6589 C.ar    1  UNL1        0.0109
     26 C         140.2326  141.6911  166.9065 C.ar    1  UNL1        0.0579
     27 C         139.4393  140.4229  167.0179 C.ar    1  UNL1        0.2249
     28 N         138.5643  139.9834  165.8816 N.ar    1  UNL1       -0.2100
     29 C         138.4826  140.8120  164.6340 C.ar    1  UNL1        0.1065
     30 O         139.5211  139.5942  168.2656 O.3     1  UNL1       -0.4575
     31 C         139.0916  140.1741  169.5805 C.3     1  UNL1        0.2390
     32 C         140.0563  140.2267  170.7279 C.3     1  UNL1        0.1897
     33 O         140.4861  141.5509  171.2864 O.3     1  UNL1       -0.3417
     34 C         141.9170  141.9854  171.1694 C.3     1  UNL1        0.2459
     35 C         142.4711  142.3908  169.8356 C.3     1  UNL1        0.4248
     36 F         143.0251  142.7962  168.5020 F       1  UNL1       -0.1674
     37 F         143.3308  141.1617  169.8192 F       1  UNL1       -0.1674
     38 F         141.6113  143.6198  169.8521 F       1  UNL1       -0.1674
@<TRIPOS>BOND
     1     1     2    2
     2     2     3   am
     3     5     3    1
     4     5     6    1
     5     6     7    1
     6     7     8    1
     7     8     9   ar
     8     9    10   ar
     9    10    11   ar
    10    11    12   ar
    11    12    15    1
    12    15    16   ar
    13    16    17   ar
    14    17    18   ar
    15    18    21    1
    16    21    22    1
    17    18    19   ar
    18    19    20   ar
    19    12    13   ar
    20    13    14    1
    21     2    24    1
    22    24    25   ar
    23    25    26   ar
    24    26    27   ar
    25    27    30    1
    26    30    31    1
    27    31    32    1
    28    32    33    1
    29    33    34    1
    30    34    35    1
    31    35    36    1
    32    35    37    1
    33    35    38    1
    34    27    28   ar
    35    28    29   ar
    36    14     5    1
    37    29    24   ar
    38    13     8   ar
    39    20    15   ar
    40     3     4    1
    41    22    23    1
@<TRIPOS>MOLECULE
*****
 38 41 0 0 0
SMALL
GASTEIGER

@<TRIPOS>ATOM
      1 O         138.3312  139.7140  160.2976 O.2     1  UNL1       -0.2701
      2 C         139.7042  139.1807  160.0138 C.2     1  UNL1        0.2474
      3 N         140.5416  138.6326  161.1310 N.am    1  UNL1       -0.2986
      4 H         141.4428  138.2825  160.9447 H       1  UNL1        0.1498
      5 C         140.0062  138.6179  162.5321 C.3     1  UNL1        0.1200
      6 C         139.0944  137.5122  162.9750 C.3     1  UNL1        0.2250
      7 O         138.5590  137.4975  164.3761 O.3     1  UNL1       -0.4740
      8 C         138.9354  138.5885  165.3343 C.ar    1  UNL1        0.1346
      9 C         138.3999  138.5738  166.7355 C.ar    1  UNL1        0.0366
     10 C         138.7763  139.6647  167.6937 C.ar    1  UNL1        0.0031
     11 C         139.6881  140.7704  167.2507 C.ar    1  UNL1       -0.0001
     12 C         140.2235  140.7851  165.8496 C.ar    1  UNL1        0.0005
     13 C         139.8472  139.6942  164.8914 C.ar    1  UNL1        0.0136
     14 C         140.3825  139.7088  163.4903 C.3     1  UNL1        0.0528
     15 C         141.1353  141.8908  165.4067 C.ar    1  UNL1        0.0190
     16 C         142.6189  141.7545  165.5807 C.ar    1  UNL1        0.0028
     17 C         143.5307  142.8602  165.1378 C.ar    1  UNL1        0.0172
     18 CA        142.9588  144.1022  164.5209 C.ar    1  UNL1        0.0885
     19 N         141.4751  144.2384  164.3470 N.ar    1  UNL1       -0.2457
     20 C         140.5634  143.1328  164.7898 C.ar    1  UNL1        0.0985
     21 C         143.8705  145.2079  164.0780 C.3     1  UNL1        0.1829
     22 O         144.1113  145.4412  162.6159 O.3     1  UNL1       -0.3760
     23 H         144.5833  144.6814  162.2407 H       1  UNL1        0.2110
     24 C         140.2396  139.1954  158.6126 C.ar    1  UNL1        0.0727
     25 C         139.8409  138.1199  157.6460 C.ar    1  UNL1        0.0109
     26 C         140.3763  138.1347  156.2449 C.ar    1  UNL1        0.0579
     27 C         141.3105  139.2249  155.8105 C.ar    1  UNL1        0.2249
     28 N         141.7093  140.3004  156.7771 N.ar    1  UNL1       -0.2100
     29 C         141.1738  140.2856  158.1782 C.ar    1  UNL1        0.1065
     30 O         141.8460  139.2396  154.4093 O.3     1  UNL1       -0.4575
     31 C         143.0258  138.3866  154.0483 C.3     1  UNL1        0.2390
     32 C         144.2323  138.3596  154.9391 C.3     1  UNL1        0.1897
     33 O         144.5678  137.1173  155.7100 O.3     1  UNL1       -0.3417
     34 C         143.7315  135.8832  155.5445 C.3     1  UNL1        0.2459
     35 C         143.4788  134.9853  156.7192 C.3     1  UNL1        0.4248
     36 F         143.2261  134.0875  157.8940 F       1  UNL1       -0.1674
     37 F         144.2599  133.8923  156.0519 F       1  UNL1       -0.1674
     38 F         142.6978  136.0782  157.3865 F       1  UNL1       -0.1674
@<TRIPOS>BOND
     1     1     2    2
     2     2     3   am
     3     5     3    1
     4     5     6    1
     5     6     7    1
     6     7     8    1
     7     8     9   ar
     8     9    10   ar
     9    10    11   ar
    10    11    12   ar
    11    12    15    1
    12    15    16   ar
    13    16    17   ar
    14    17    18   ar
    15    18    21    1
    16    21    22    1
    17    18    19   ar
    18    19    20   ar
    19    12    13   ar
    20    13    14    1
    21     2    24    1
    22    24    25   ar
    23    25    26   ar
    24    26    27   ar
    25    27    30    1
    26    30    31    1
    27    31    32    1
    28    32    33    1
    29    33    34    1
    30    34    35    1
    31    35    36    1
    32    35    37    1
    33    35    38    1
    34    27    28   ar
    35    28    29   ar
    36    14     5    1
    37    29    24   ar
    38    13     8   ar
    39    20    15   ar
    40     3     4    1
    41    22    23    1
@<TRIPOS>MOLECULE
*****
 38 41 0 0 0
SMALL
GASTEIGER

@<TRIPOS>ATOM
      1 O         143.3127  138.9895  161.0124 O.2     1  UNL1       -0.2701
      2 C         141.8971  138.5732  160.7426 C.2     1  UNL1        0.2474
      3 N         140.9141  138.4816  161.8719 N.am    1  UNL1       -0.2986
      4 H         139.9850  138.2084  161.6948 H       1  UNL1        0.1498
      5 C         141.3467  138.8063  163.2710 C.3     1  UNL1        0.1200
      6 C         141.8136  137.7122  164.1847 C.3     1  UNL1        0.2250
      7 O         142.2461  138.0369  165.5837 O.3     1  UNL1       -0.4740
      8 C         142.2118  139.4558  166.0691 C.ar    1  UNL1        0.1346
      9 C         142.6444  139.7805  167.4683 C.ar    1  UNL1        0.0366
     10 C         142.6101  141.1994  167.9537 C.ar    1  UNL1        0.0031
     11 C         142.1432  142.2935  167.0399 C.ar    1  UNL1       -0.0001
     12 C         141.7106  141.9688  165.6409 C.ar    1  UNL1        0.0005
     13 C         141.7449  140.5499  165.1555 C.ar    1  UNL1        0.0136
     14 C         141.3124  140.2252  163.7564 C.3     1  UNL1        0.0528
     15 C         141.2438  143.0630  164.7272 C.ar    1  UNL1        0.0190
     16 C         139.8125  143.5104  164.7631 C.ar    1  UNL1        0.0028
     17 C         139.3457  144.6046  163.8493 C.ar    1  UNL1        0.0172
     18 CA        140.3101  145.2513  162.8998 C.ar    1  UNL1        0.0885
     19 N         141.7413  144.8039  162.8640 N.ar    1  UNL1       -0.2457
     20 C         142.2082  143.7098  163.7777 C.ar    1  UNL1        0.0985
     21 C         139.8432  146.3456  161.9861 C.3     1  UNL1        0.1829
     22 O         139.5084  146.0373  160.5568 O.3     1  UNL1       -0.3760
     23 H         140.3129  145.7661  160.0875 H       1  UNL1        0.2110
     24 C         141.4645  138.2485  159.3435 C.ar    1  UNL1        0.0727
     25 C         142.4629  137.7311  158.3508 C.ar    1  UNL1        0.0109
     26 C         142.0303  137.4065  156.9517 C.ar    1  UNL1        0.0579
     27 C         140.5993  137.5992  156.5454 C.ar    1  UNL1        0.2249
     28 N         139.6009  138.1166  157.5381 N.ar    1  UNL1       -0.2100
     29 C         140.0335  138.4413  158.9371 C.ar    1  UNL1        0.1065
     30 O         140.1667  137.2745  155.1462 O.3     1  UNL1       -0.4575
     31 C         141.0218  137.6820  153.9832 C.3     1  UNL1        0.2390
     32 C         141.7884  136.6456  153.2165 C.3     1  UNL1        0.1897
     33 O         142.6188  135.6331  153.9482 O.3     1  UNL1       -0.3417
     34 C         141.9944  134.3563  154.4277 C.3     1  UNL1        0.2459
     35 C         142.3446  133.8121  155.7810 C.3     1  UNL1        0.4248
     36 F         142.6947  133.2680  157.1342 F       1  UNL1       -0.1674
     37 F         141.1205  132.9457  155.7493 F       1  UNL1       -0.1674
     38 F         143.5686  134.6785  155.8126 F       1  UNL1       -0.1674
@<TRIPOS>BOND
     1     1     2    2
     2     2     3   am
     3     5     3    1
     4     5     6    1
     5     6     7    1
     6     7     8    1
     7     8     9   ar
     8     9    10   ar
     9    10    11   ar
    10    11    12   ar
    11    12    15    1
    12    15    16   ar
    13    16    17   ar
    14    17    18   ar
    15    18    21    1
    16    21    22    1
    17    18    19   ar
    18    19    20   ar
    19    12    13   ar
    20    13    14    1
    21     2    24    1
    22    24    25   ar
    23    25    26   ar
    24    26    27   ar
    25    27    30    1
    26    30    31    1
    27    31    32    1
    28    32    33    1
    29    33    34    1
    30    34    35    1
    31    35    36    1
    32    35    37    1
    33    35    38    1
    34    27    28   ar
    35    28    29   ar
    36    14     5    1
    37    29    24   ar
    38    13     8   ar
    39    20    15   ar
    40     3     4    1
    41    22    23    1
@<TRIPOS>MOLECULE
*****
 38 41 0 0 0
SMALL
GASTEIGER

@<TRIPOS>ATOM
      1 O         142.6117  144.4668  161.3244 O.2     1  UNL1       -0.2701
      2 C         141.2881  144.6292  160.6376 C.2     1  UNL1        0.2474
      3 N         140.0152  144.4257  161.4046 N.am    1  UNL1       -0.2986
      4 H         139.1465  144.5323  160.9538 H       1  UNL1        0.1498
      5 C         140.0659  144.0599  162.8585 C.3     1  UNL1        0.1200
      6 C         139.4204  144.9500  163.8788 C.3     1  UNL1        0.2250
      7 O         139.4711  144.5842  165.3325 O.3     1  UNL1       -0.4740
      8 C         140.1673  143.3282  165.7660 C.ar    1  UNL1        0.1346
      9 C         140.2180  142.9624  167.2199 C.ar    1  UNL1        0.0366
     10 C         140.9141  141.7064  167.6534 C.ar    1  UNL1        0.0031
     11 C         141.5596  140.8163  166.6330 C.ar    1  UNL1       -0.0001
     12 C         141.5089  141.1821  165.1792 C.ar    1  UNL1        0.0005
     13 C         140.8127  142.4381  164.7457 C.ar    1  UNL1        0.0136
     14 C         140.7620  142.8039  163.2920 C.3     1  UNL1        0.0528
     15 C         142.1543  140.2920  164.1590 C.ar    1  UNL1        0.0190
     16 C         143.5995  140.4821  163.8047 C.ar    1  UNL1        0.0028
     17 C         144.2449  139.5919  162.7844 C.ar    1  UNL1        0.0172
     18 CA        143.4452  138.5117  162.1183 C.ar    1  UNL1        0.0885
     19 N         142.0001  138.3216  162.4726 N.ar    1  UNL1       -0.2457
     20 C         141.3547  139.2117  163.4928 C.ar    1  UNL1        0.0985
     21 C         144.0907  137.6215  161.0980 C.3     1  UNL1        0.1829
     22 O         143.2568  136.6527  160.3131 O.3     1  UNL1       -0.3760
     23 H         142.8952  135.9794  160.9104 H       1  UNL1        0.2110
     24 C         141.2374  144.9950  159.1837 C.ar    1  UNL1        0.0727
     25 C         142.3139  144.5208  158.2531 C.ar    1  UNL1        0.0109
     26 C         142.2632  144.8866  156.7993 C.ar    1  UNL1        0.0579
     27 C         141.1360  145.7267  156.2762 C.ar    1  UNL1        0.2249
     28 N         140.0595  146.2009  157.2068 N.ar    1  UNL1       -0.2100
     29 C         140.1102  145.8351  158.6606 C.ar    1  UNL1        0.1065
     30 O         141.0853  146.0925  154.8223 O.3     1  UNL1       -0.4575
     31 C         139.9995  146.9933  154.3130 C.3     1  UNL1        0.2390
     32 C         140.2905  148.4396  154.0419 C.3     1  UNL1        0.1897
     33 O         139.3576  149.5000  154.5473 O.3     1  UNL1       -0.3417
     34 C         138.5649  149.2668  155.7992 C.3     1  UNL1        0.2459
     35 C         138.6270  150.2596  156.9220 C.3     1  UNL1        0.4248
     36 F         138.6890  151.2523  158.0448 F       1  UNL1       -0.1674
     37 F         139.4168  151.1930  156.0532 F       1  UNL1       -0.1674
     38 F         137.8372  149.3262  157.7909 F       1  UNL1       -0.1674
@<TRIPOS>BOND
     1     1     2    2
     2     2     3   am
     3     5     3    1
     4     5     6    1
     5     6     7    1
     6     7     8    1
     7     8     9   ar
     8     9    10   ar
     9    10    11   ar
    10    11    12   ar
    11    12    15    1
    12    15    16   ar
    13    16    17   ar
    14    17    18   ar
    15    18    21    1
    16    21    22    1
    17    18    19   ar
    18    19    20   ar
    19    12    13   ar
    20    13    14    1
    21     2    24    1
    22    24    25   ar
    23    25    26   ar
    24    26    27   ar
    25    27    30    1
    26    30    31    1
    27    31    32    1
    28    32    33    1
    29    33    34    1
    30    34    35    1
    31    35    36    1
    32    35    37    1
    33    35    38    1
    34    27    28   ar
    35    28    29   ar
    36    14     5    1
    37    29    24   ar
    38    13     8   ar
    39    20    15   ar
    40     3     4    1
    41    22    23    1
@<TRIPOS>MOLECULE
*****
 38 41 0 0 0
SMALL
GASTEIGER

@<TRIPOS>ATOM
      1 O         138.7947  138.8709  159.3596 O.2     1  UNL1       -0.2701
      2 C         140.1593  139.2655  158.8776 C.2     1  UNL1        0.2474
      3 N         140.7697  140.5587  159.3302 N.am    1  UNL1       -0.2986
      4 H         141.6653  140.8176  159.0138 H       1  UNL1        0.1498
      5 C         140.0156  141.4574  160.2650 C.3     1  UNL1        0.1200
      6 C         139.0010  142.4207  159.7239 C.3     1  UNL1        0.2250
      7 O         138.2470  143.3193  160.6587 O.3     1  UNL1       -0.4740
      8 C         138.5074  143.2546  162.1345 C.ar    1  UNL1        0.1346
      9 C         137.7533  144.1533  163.0692 C.ar    1  UNL1        0.0366
     10 C         138.0138  144.0887  164.5450 C.ar    1  UNL1        0.0031
     11 C         139.0283  143.1253  165.0861 C.ar    1  UNL1       -0.0001
     12 C         139.7824  142.2267  164.1513 C.ar    1  UNL1        0.0005
     13 C         139.5219  142.2914  162.6755 C.ar    1  UNL1        0.0136
     14 C         140.2760  141.3927  161.7408 C.3     1  UNL1        0.0528
     15 C         140.7969  141.2634  164.6924 C.ar    1  UNL1        0.0190
     16 C         140.3565  139.9355  165.2333 C.ar    1  UNL1        0.0028
     17 C         141.3711  138.9722  165.7744 C.ar    1  UNL1        0.0172
     18 CA        142.8261  139.3368  165.7745 C.ar    1  UNL1        0.0885
     19 N         143.2665  140.6647  165.2335 N.ar    1  UNL1       -0.2457
     20 C         142.2520  141.6280  164.6925 C.ar    1  UNL1        0.0985
     21 C         143.8407  138.3735  166.3156 C.3     1  UNL1        0.1829
     22 O         143.7757  137.9436  167.7512 O.3     1  UNL1       -0.3760
     23 H         143.9528  138.7053  168.3251 H       1  UNL1        0.2110
     24 C         140.9134  138.3668  157.9428 C.ar    1  UNL1        0.0727
     25 C         140.1861  137.6420  156.8493 C.ar    1  UNL1        0.0109
     26 C         140.9403  136.7433  155.9146 C.ar    1  UNL1        0.0579
     27 C         142.4217  136.5695  156.0734 C.ar    1  UNL1        0.2249
     28 N         143.1489  137.2942  157.1669 N.ar    1  UNL1       -0.2100
     29 C         142.3948  138.1929  158.1016 C.ar    1  UNL1        0.1065
     30 O         143.1758  135.6708  155.1387 O.3     1  UNL1       -0.4575
     31 C         143.5417  134.2806  155.5669 C.3     1  UNL1        0.2390
     32 C         142.5626  133.4538  156.3465 C.3     1  UNL1        0.1897
     33 O         142.8238  131.9936  156.5691 O.3     1  UNL1       -0.3417
     34 C         142.2049  130.9738  155.6597 C.3     1  UNL1        0.2459
     35 C         141.5562  131.4070  154.3784 C.3     1  UNL1        0.4248
     36 F         140.9075  131.8401  153.0971 F       1  UNL1       -0.1674
     37 F         142.8982  131.4372  153.7091 F       1  UNL1       -0.1674
     38 F         140.2141  131.3767  155.0476 F       1  UNL1       -0.1674
@<TRIPOS>BOND
     1     1     2    2
     2     2     3   am
     3     5     3    1
     4     5     6    1
     5     6     7    1
     6     7     8    1
     7     8     9   ar
     8     9    10   ar
     9    10    11   ar
    10    11    12   ar
    11    12    15    1
    12    15    16   ar
    13    16    17   ar
    14    17    18   ar
    15    18    21    1
    16    21    22    1
    17    18    19   ar
    18    19    20   ar
    19    12    13   ar
    20    13    14    1
    21     2    24    1
    22    24    25   ar
    23    25    26   ar
    24    26    27   ar
    25    27    30    1
    26    30    31    1
    27    31    32    1
    28    32    33    1
    29    33    34    1
    30    34    35    1
    31    35    36    1
    32    35    37    1
    33    35    38    1
    34    27    28   ar
    35    28    29   ar
    36    14     5    1
    37    29    24   ar
    38    13     8   ar
    39    20    15   ar
    40     3     4    1
    41    22    23    1
@<TRIPOS>MOLECULE
*****
 38 41 0 0 0
SMALL
GASTEIGER

@<TRIPOS>ATOM
      1 O         144.0449  139.2091  158.8577 O.2     1  UNL1       -0.2701
      2 C         142.8828  138.6918  159.6526 C.2     1  UNL1        0.2474
      3 N         141.6598  138.1830  158.9488 N.am    1  UNL1       -0.2986
      4 H         140.8971  137.8434  159.4706 H       1  UNL1        0.1498
      5 C         141.5989  138.1915  157.4500 C.3     1  UNL1        0.1200
      6 C         141.2743  139.4609  156.7199 C.3     1  UNL1        0.2250
      7 O         141.2133  139.4694  155.2212 O.3     1  UNL1       -0.4740
      8 C         141.4770  138.2086  154.4526 C.ar    1  UNL1        0.1346
      9 C         141.4161  138.2171  152.9538 C.ar    1  UNL1        0.0366
     10 C         141.6797  136.9562  152.1853 C.ar    1  UNL1        0.0031
     11 C         142.0043  135.6868  152.9156 C.ar    1  UNL1       -0.0001
     12 C         142.0653  135.6783  154.4143 C.ar    1  UNL1        0.0005
     13 C         141.8016  136.9392  155.1828 C.ar    1  UNL1        0.0136
     14 C         141.8625  136.9306  156.6815 C.3     1  UNL1        0.0528
     15 C         142.3898  134.4089  155.1445 C.ar    1  UNL1        0.0190
     16 C         143.7454  134.2228  155.7592 C.ar    1  UNL1        0.0028
     17 C         144.0699  132.9534  156.4894 C.ar    1  UNL1        0.0172
     18 CA        143.0390  131.8700  156.6049 C.ar    1  UNL1        0.0885
     19 N         141.6835  132.0560  155.9901 N.ar    1  UNL1       -0.2457
     20 C         141.3589  133.3254  155.2599 C.ar    1  UNL1        0.0985
     21 C         143.3636  130.6005  157.3351 C.3     1  UNL1        0.1829
     22 O         144.4808  130.5755  158.3357 O.3     1  UNL1       -0.3760
     23 H         145.3252  130.7218  157.8812 H       1  UNL1        0.2110
     24 C         142.9437  138.6832  161.1514 C.ar    1  UNL1        0.0727
     25 C         141.9111  137.9334  161.9398 C.ar    1  UNL1        0.0109
     26 C         141.9721  137.9249  163.4385 C.ar    1  UNL1        0.0579
     27 C         143.0657  138.6662  164.1488 C.ar    1  UNL1        0.2249
     28 N         144.0983  139.4160  163.3605 N.ar    1  UNL1       -0.2100
     29 C         144.0373  139.4245  161.8618 C.ar    1  UNL1        0.1065
     30 O         143.1266  138.6576  165.6476 O.3     1  UNL1       -0.4575
     31 C         141.9523  139.1362  166.4487 C.3     1  UNL1        0.2390
     32 C         142.1698  139.9984  167.6567 C.3     1  UNL1        0.1897
     33 O         141.6598  141.4091  167.6729 O.3     1  UNL1       -0.3417
     34 C         141.9330  142.2917  168.8545 C.3     1  UNL1        0.2459
     35 C         143.3195  142.3800  169.4202 C.3     1  UNL1        0.4248
     36 F         144.7059  142.4682  169.9859 F       1  UNL1       -0.1674
     37 F         143.8574  142.6865  168.0540 F       1  UNL1       -0.1674
     38 F         142.7815  142.0734  170.7864 F       1  UNL1       -0.1674
@<TRIPOS>BOND
     1     1     2    2
     2     2     3   am
     3     5     3    1
     4     5     6    1
     5     6     7    1
     6     7     8    1
     7     8     9   ar
     8     9    10   ar
     9    10    11   ar
    10    11    12   ar
    11    12    15    1
    12    15    16   ar
    13    16    17   ar
    14    17    18   ar
    15    18    21    1
    16    21    22    1
    17    18    19   ar
    18    19    20   ar
    19    12    13   ar
    20    13    14    1
    21     2    24    1
    22    24    25   ar
    23    25    26   ar
    24    26    27   ar
    25    27    30    1
    26    30    31    1
    27    31    32    1
    28    32    33    1
    29    33    34    1
    30    34    35    1
    31    35    36    1
    32    35    37    1
    33    35    38    1
    34    27    28   ar
    35    28    29   ar
    36    14     5    1
    37    29    24   ar
    38    13     8   ar
    39    20    15   ar
    40     3     4    1
    41    22    23    1
