@<TRIPOS>MOLECULE
*****
 46 52 0 0 0
SMALL
GASTEIGER

@<TRIPOS>ATOM
      1 C         142.2667  142.7289  160.2451 C.3     1  UNL1        0.1707
      2 N         141.7852  143.3447  158.9649 N.3     1  UNL1       -0.2797
      3 C         140.6112  144.2783  158.9768 C.3     1  UNL1        0.1167
      4 C         139.9188  144.5961  160.2689 C.3     1  UNL1        0.0511
      5 C         140.4003  143.9803  161.5491 C.2     1  UNL1       -0.0037
      6 C         141.5743  143.0468  161.5372 C.2     1  UNL1        0.0800
      7 N         141.8212  142.5947  162.9459 N.2     1  UNL1       -0.2519
      8 C         140.7999  143.2488  163.8285 C.2     1  UNL1        0.0627
      9 C         140.5560  143.1753  165.3067 C.3     1  UNL1        0.0717
     10 C         139.4340  143.9582  165.9216 C.2     1  UNL1       -0.0198
     11 C         138.5559  144.8146  165.0583 C.2     1  UNL1       -0.0042
     12 C         138.7997  144.8882  163.5801 C.2     1  UNL1        0.0006
     13 C         139.9217  144.1052  162.9652 C.2     1  UNL1        0.0111
     14 H         141.5431  142.5751  158.3408 H       1  UNL1        0.1246
     15 C         143.0878  141.9032  161.1907 C.ar    1  UNL1        0.2494
     16 N         142.7209  140.5515  161.7275 N.ar    1  UNL1       -0.1281
     17 N         143.8263  140.0972  162.6340 N.ar    1  UNL1       -0.1735
     18 C         144.8763  141.1680  162.6574 C.ar    1  UNL1        0.4393
     19 O         146.1577  141.1295  163.4361 O.2     1  UNL1       -0.2210
     20 O         144.4198  142.2843  161.7653 O.2     1  UNL1       -0.3896
     21 C         143.8733  138.7997  163.3852 C.3     1  UNL1        0.2180
     22 C         142.6122  138.0211  163.6169 C.2     1  UNL1        0.2445
     23 N         141.8747  137.4248  162.4548 N.am    1  UNL1       -0.3272
     24 O         142.0887  137.8389  165.0107 O.2     1  UNL1       -0.2732
     25 H         142.2183  137.5444  161.5400 H       1  UNL1        0.1450
     26 H         141.0471  136.9138  162.6069 H       1  UNL1        0.1450
     27 C         140.1296  144.8942  157.6965 C.ar    1  UNL1        0.1319
     28 N         140.3079  146.3255  157.2851 N.ar    1  UNL1       -0.2282
     29 C         139.6737  146.5027  155.9373 C.ar    1  UNL1        0.1171
     30 C         139.1035  145.1809  155.5159 C.ar    1  UNL1        0.0942
     31 N         139.3853  144.1867  156.6032 N.ar    1  UNL1       -0.3385
     32 H         139.1271  143.2367  156.5998 H       1  UNL1        0.1672
     33 C         139.6193  147.7780  155.1493 C.ar    1  UNL1        0.1006
     34 C         140.2434  147.8450  153.7869 C.ar    1  UNL1        0.0230
     35 C         140.1890  149.1201  152.9989 C.ar    1  UNL1        0.0328
     36 C         139.5106  150.3283  153.5733 C.ar    1  UNL1        0.1592
     37 F         139.4562  151.6036  152.7853 F       1  UNL1       -0.2025
     38 C         138.8865  150.2613  154.9357 C.ar    1  UNL1        0.1284
     39 N         138.9409  148.9862  155.7237 N.ar    1  UNL1       -0.2399
     40 N         145.0367  141.8732  157.6643 N.ar    1  UNL1       -0.2497
     41 C         144.2850  142.8682  158.4980 C.ar    1  UNL1        0.0944
     42 C         143.2443  142.1243  159.2814 C.ar    1  UNL1        0.0439
     43 C         143.3529  140.6696  158.9319 C.ar    1  UNL1        0.1194
     44 N         144.4607  140.5145  157.9325 N.ar    1  UNL1       -0.1679
     45 C         147.3926  142.8812  157.2353 C.3     1  UNL1        0.0284
     46 C         146.1662  142.1827  156.7270 C.3     1  UNL1        0.1276
@<TRIPOS>BOND
     1    45    46    1
     2    46    40    1
     3    40    41   ar
     4    41    42   ar
     5     1    42    1
     6     1    15    1
     7    15    16   ar
     8    16    17   ar
     9    17    21    1
    10    21    22    1
    11    22    23   am
    12    22    24    2
    13    17    18   ar
    14    18    19    2
    15    18    20   ar
    16     1     2    1
    17     2     3    1
    18     3    27    1
    19    27    28   ar
    20    28    29   ar
    21    29    33    1
    22    33    34   ar
    23    34    35   ar
    24    35    36   ar
    25    36    37    1
    26    36    38   ar
    27    38    39   ar
    28    29    30   ar
    29    30    31   ar
    30     3     4    1
    31     4     5    1
    32     5     6    2
    33     6     7    1
    34     7     8    2
    35     8     9    1
    36     9    10    1
    37    10    11    2
    38    11    12    1
    39    12    13    2
    40    42    43   ar
    41    43    44   ar
    42    44    40   ar
    43     6     1    1
    44    13     8    1
    45    20    15   ar
    46    31    27   ar
    47    13     5    1
    48    39    33   ar
    49    23    25    1
    50    23    26    1
    51     2    14    1
    52    31    32    1
@<TRIPOS>MOLECULE
*****
 46 52 0 0 0
SMALL
GASTEIGER

@<TRIPOS>ATOM
      1 C         140.9885  141.5791  159.7785 C.3     1  UNL1        0.1707
      2 N         141.2801  140.4942  158.7846 N.3     1  UNL1       -0.2797
      3 C         142.5154  139.6558  158.9305 C.3     1  UNL1        0.1167
      4 C         143.4589  139.9023  160.0702 C.3     1  UNL1        0.0511
      5 C         143.1672  140.9873  161.0641 C.2     1  UNL1       -0.0037
      6 C         141.9320  141.8257  160.9182 C.2     1  UNL1        0.0800
      7 N         141.9083  142.8158  162.0447 N.2     1  UNL1       -0.2519
      8 C         143.1288  142.5894  162.8867 C.2     1  UNL1        0.0627
      9 C         143.6322  143.2663  164.1270 C.3     1  UNL1        0.0717
     10 C         144.9137  142.8130  164.7613 C.2     1  UNL1       -0.0198
     11 C         145.6918  141.6829  164.1552 C.2     1  UNL1       -0.0042
     12 C         145.1884  141.0060  162.9149 C.2     1  UNL1        0.0006
     13 C         143.9069  141.4593  162.2807 C.2     1  UNL1        0.0111
     14 H         141.3335  140.9403  157.8689 H       1  UNL1        0.1246
     15 C         140.2842  142.7156  160.4586 C.ar    1  UNL1        0.2494
     16 N         139.2414  142.5921  161.5296 N.ar    1  UNL1       -0.1281
     17 N         138.8118  143.9753  161.9200 N.ar    1  UNL1       -0.1735
     18 C         139.5892  144.9535  161.0902 C.ar    1  UNL1        0.4393
     19 O         139.4764  146.4480  161.1527 O.2     1  UNL1       -0.2210
     20 O         140.4992  144.1750  160.1870 O.2     1  UNL1       -0.3896
     21 C         137.7851  144.3196  162.9580 C.3     1  UNL1        0.2180
     22 C         137.8958  143.7486  164.3407 C.2     1  UNL1        0.2445
     23 N         137.6146  142.2942  164.5762 N.am    1  UNL1       -0.3272
     24 O         138.2876  144.6321  165.4878 O.2     1  UNL1       -0.2732
     25 H         137.3574  141.7143  163.8233 H       1  UNL1        0.1450
     26 H         137.6872  141.9194  165.4837 H       1  UNL1        0.1450
     27 C         142.8071  138.5707  157.9366 C.ar    1  UNL1        0.1319
     28 N         142.3564  137.1433  158.0321 N.ar    1  UNL1       -0.2282
     29 C         142.8714  136.4130  156.8273 C.ar    1  UNL1        0.1171
     30 C         143.6404  137.3892  155.9873 C.ar    1  UNL1        0.0942
     31 N         143.6007  138.7228  156.6728 N.ar    1  UNL1       -0.3385
     32 H         144.0215  139.5522  156.3500 H       1  UNL1        0.1672
     33 C         142.6554  134.9614  156.5171 C.ar    1  UNL1        0.1006
     34 C         141.6830  134.5596  155.4479 C.ar    1  UNL1        0.0230
     35 C         141.4670  133.1081  155.1376 C.ar    1  UNL1        0.0328
     36 C         142.2233  132.0583  155.8965 C.ar    1  UNL1        0.1592
     37 F         142.0072  130.6067  155.5863 F       1  UNL1       -0.2025
     38 C         143.1956  132.4601  156.9657 C.ar    1  UNL1        0.1284
     39 N         143.4117  133.9116  157.2759 N.ar    1  UNL1       -0.2399
     40 N         138.3002  142.5399  157.1488 N.ar    1  UNL1       -0.2497
     41 C         139.6332  142.7604  157.8004 C.ar    1  UNL1        0.0944
     42 C         139.8003  141.7273  158.8750 C.ar    1  UNL1        0.0439
     43 C         138.5707  140.8682  158.8874 C.ar    1  UNL1        0.1194
     44 N         137.6436  141.3705  157.8205 N.ar    1  UNL1       -0.1679
     45 C         136.4245  142.9397  155.3961 C.3     1  UNL1        0.0284
     46 C         137.7249  143.3471  156.0229 C.3     1  UNL1        0.1276
@<TRIPOS>BOND
     1    45    46    1
     2    46    40    1
     3    40    41   ar
     4    41    42   ar
     5     1    42    1
     6     1    15    1
     7    15    16   ar
     8    16    17   ar
     9    17    21    1
    10    21    22    1
    11    22    23   am
    12    22    24    2
    13    17    18   ar
    14    18    19    2
    15    18    20   ar
    16     1     2    1
    17     2     3    1
    18     3    27    1
    19    27    28   ar
    20    28    29   ar
    21    29    33    1
    22    33    34   ar
    23    34    35   ar
    24    35    36   ar
    25    36    37    1
    26    36    38   ar
    27    38    39   ar
    28    29    30   ar
    29    30    31   ar
    30     3     4    1
    31     4     5    1
    32     5     6    2
    33     6     7    1
    34     7     8    2
    35     8     9    1
    36     9    10    1
    37    10    11    2
    38    11    12    1
    39    12    13    2
    40    42    43   ar
    41    43    44   ar
    42    44    40   ar
    43     6     1    1
    44    13     8    1
    45    20    15   ar
    46    31    27   ar
    47    13     5    1
    48    39    33   ar
    49    23    25    1
    50    23    26    1
    51     2    14    1
    52    31    32    1
@<TRIPOS>MOLECULE
*****
 46 52 0 0 0
SMALL
GASTEIGER

@<TRIPOS>ATOM
      1 C         141.9719  141.1603  159.7684 C.3     1  UNL1        0.1707
      2 N         141.9840  139.7933  159.1510 N.3     1  UNL1       -0.2797
      3 C         141.5188  139.6046  157.7375 C.3     1  UNL1        0.1167
      4 C         141.0414  140.7829  156.9414 C.3     1  UNL1        0.0511
      5 C         141.0293  142.1499  157.5588 C.2     1  UNL1       -0.0037
      6 C         141.4945  142.3386  158.9722 C.2     1  UNL1        0.0800
      7 N         141.3695  143.7945  159.3108 N.2     1  UNL1       -0.2519
      8 C         140.8270  144.5056  158.1067 C.2     1  UNL1        0.0627
      9 C         140.4973  145.9473  157.8563 C.3     1  UNL1        0.0717
     10 C         139.9573  146.3726  156.5231 C.2     1  UNL1       -0.0198
     11 C         139.7470  145.3561  155.4402 C.2     1  UNL1       -0.0042
     12 C         140.0767  143.9144  155.6906 C.2     1  UNL1        0.0006
     13 C         140.6167  143.4891  157.0238 C.2     1  UNL1        0.0111
     14 H         141.3954  139.2007  159.7364 H       1  UNL1        0.1246
     15 C         142.1466  142.2496  160.7848 C.ar    1  UNL1        0.2494
     16 N         141.0958  142.7488  161.7316 N.ar    1  UNL1       -0.1281
     17 N         141.7027  143.8386  162.5648 N.ar    1  UNL1       -0.1735
     18 C         143.1285  144.0128  162.1329 C.ar    1  UNL1        0.4393
     19 O         144.1080  144.9965  162.7013 O.2     1  UNL1       -0.2210
     20 O         143.4029  143.0307  161.0327 O.2     1  UNL1       -0.3896
     21 C         141.0060  144.6173  163.6409 C.3     1  UNL1        0.2180
     22 C         139.5280  144.8587  163.5547 C.2     1  UNL1        0.2445
     23 N         138.8677  144.9980  162.2151 N.am    1  UNL1       -0.3272
     24 O         138.7104  144.9607  164.8082 O.2     1  UNL1       -0.2732
     25 H         139.4043  144.9310  161.3925 H       1  UNL1        0.1450
     26 H         137.8976  145.1564  162.1586 H       1  UNL1        0.1450
     27 C         141.5309  138.2376  157.1201 C.ar    1  UNL1        0.1319
     28 N         142.5537  137.1683  157.3659 N.ar    1  UNL1       -0.2282
     29 C         142.1773  135.9697  156.5463 C.ar    1  UNL1        0.1171
     30 C         140.9219  136.2983  155.7940 C.ar    1  UNL1        0.0942
     31 N         140.5224  137.6999  156.1486 N.ar    1  UNL1       -0.3385
     32 H         139.7363  138.1823  155.8042 H       1  UNL1        0.1672
     33 C         142.9251  134.6706  156.4890 C.ar    1  UNL1        0.1006
     34 C         142.8815  133.8343  155.2445 C.ar    1  UNL1        0.0230
     35 C         143.6292  132.5353  155.1872 C.ar    1  UNL1        0.0328
     36 C         144.4206  132.0725  156.3745 C.ar    1  UNL1        0.1592
     37 F         145.1684  130.7734  156.3172 F       1  UNL1       -0.2025
     38 C         144.4642  132.9087  157.6190 C.ar    1  UNL1        0.1284
     39 N         143.7165  134.2078  157.6763 N.ar    1  UNL1       -0.2399
     40 N         142.6403  139.0262  162.9407 N.ar    1  UNL1       -0.2497
     41 C         141.6972  139.7233  162.0054 C.ar    1  UNL1        0.0944
     42 C         142.5100  140.3604  160.9175 C.ar    1  UNL1        0.0439
     43 C         143.9553  140.0571  161.1805 C.ar    1  UNL1        0.1194
     44 N         144.0358  139.2325  162.4309 N.ar    1  UNL1       -0.1679
     45 C         141.1740  137.2207  164.0983 C.3     1  UNL1        0.0284
     46 C         142.2553  138.2577  164.1701 C.3     1  UNL1        0.1276
@<TRIPOS>BOND
     1    45    46    1
     2    46    40    1
     3    40    41   ar
     4    41    42   ar
     5     1    42    1
     6     1    15    1
     7    15    16   ar
     8    16    17   ar
     9    17    21    1
    10    21    22    1
    11    22    23   am
    12    22    24    2
    13    17    18   ar
    14    18    19    2
    15    18    20   ar
    16     1     2    1
    17     2     3    1
    18     3    27    1
    19    27    28   ar
    20    28    29   ar
    21    29    33    1
    22    33    34   ar
    23    34    35   ar
    24    35    36   ar
    25    36    37    1
    26    36    38   ar
    27    38    39   ar
    28    29    30   ar
    29    30    31   ar
    30     3     4    1
    31     4     5    1
    32     5     6    2
    33     6     7    1
    34     7     8    2
    35     8     9    1
    36     9    10    1
    37    10    11    2
    38    11    12    1
    39    12    13    2
    40    42    43   ar
    41    43    44   ar
    42    44    40   ar
    43     6     1    1
    44    13     8    1
    45    20    15   ar
    46    31    27   ar
    47    13     5    1
    48    39    33   ar
    49    23    25    1
    50    23    26    1
    51     2    14    1
    52    31    32    1
@<TRIPOS>MOLECULE
*****
 46 52 0 0 0
SMALL
GASTEIGER

@<TRIPOS>ATOM
      1 C         141.1151  140.3264  159.7301 C.3     1  UNL1        0.1707
      2 N         141.6684  139.0832  159.0991 N.3     1  UNL1       -0.2797
      3 C         142.3300  139.1551  157.7548 C.3     1  UNL1        0.1167
      4 C         142.4383  140.4702  157.0415 C.3     1  UNL1        0.0511
      5 C         141.8850  141.7134  157.6725 C.2     1  UNL1       -0.0037
      6 C         141.2234  141.6416  159.0167 C.2     1  UNL1        0.0800
      7 N         140.7745  143.0241  159.3869 N.2     1  UNL1       -0.2519
      8 C         141.1587  143.9505  158.2714 C.2     1  UNL1        0.0627
      9 C         140.9723  145.4269  158.0837 C.3     1  UNL1        0.0717
     10 C         141.4722  146.0933  156.8363 C.2     1  UNL1       -0.0198
     11 C         142.1585  145.2832  155.7767 C.2     1  UNL1       -0.0042
     12 C         142.3449  143.8068  155.9644 C.2     1  UNL1        0.0006
     13 C         141.8450  143.1404  157.2118 C.2     1  UNL1        0.0111
     14 H         140.8922  138.4274  159.0106 H       1  UNL1        0.1246
     15 C         140.4431  141.2209  160.7293 C.ar    1  UNL1        0.2494
     16 N         141.1327  142.0893  161.7393 N.ar    1  UNL1       -0.1281
     17 N         140.0792  142.8091  162.5281 N.ar    1  UNL1       -0.1735
     18 C         138.7386  142.3855  162.0055 C.ar    1  UNL1        0.4393
     19 O         137.4068  142.8602  162.5067 O.2     1  UNL1       -0.2210
     20 O         138.9634  141.4039  160.8937 O.2     1  UNL1       -0.3896
     21 C         140.3236  143.7816  163.6436 C.3     1  UNL1        0.2180
     22 C         141.1496  145.0099  163.4002 C.2     1  UNL1        0.2445
     23 N         140.6120  146.1175  162.5433 N.am    1  UNL1       -0.3272
     24 O         142.5130  145.1306  164.0138 O.2     1  UNL1       -0.2732
     25 H         139.7172  146.0382  162.1406 H       1  UNL1        0.1450
     26 H         141.1541  146.9236  162.3836 H       1  UNL1        0.1450
     27 C         142.8834  137.9118  157.1238 C.ar    1  UNL1        0.1319
     28 N         142.5587  136.5022  157.5206 N.ar    1  UNL1       -0.2282
     29 C         143.3332  135.5791  156.6273 C.ar    1  UNL1        0.1171
     30 C         144.1365  136.4182  155.6783 C.ar    1  UNL1        0.0942
     31 N         143.8585  137.8599  155.9852 N.ar    1  UNL1       -0.3385
     32 H         144.2477  138.6359  155.5208 H       1  UNL1        0.1672
     33 C         143.3087  134.0800  156.6746 C.ar    1  UNL1        0.1006
     34 C         142.2799  133.3216  155.8894 C.ar    1  UNL1        0.0230
     35 C         142.2554  131.8225  155.9367 C.ar    1  UNL1        0.0328
     36 C         143.2595  131.0819  156.7692 C.ar    1  UNL1        0.1592
     37 F         143.2350  129.5828  156.8166 F       1  UNL1       -0.2025
     38 C         144.2883  131.8403  157.5544 C.ar    1  UNL1        0.1284
     39 N         144.3128  133.3394  157.5071 N.ar    1  UNL1       -0.2399
     40 N         140.8589  137.9758  162.8081 N.ar    1  UNL1       -0.2497
     41 C         141.5617  139.0545  162.0382 C.ar    1  UNL1        0.0944
     42 C         140.7734  139.3220  160.7904 C.ar    1  UNL1        0.0439
     43 C         139.5835  138.4087  160.7891 C.ar    1  UNL1        0.1194
     44 N         139.6363  137.5767  162.0361 N.ar    1  UNL1       -0.1679
     45 C         142.2090  138.1844  165.0180 C.3     1  UNL1        0.0284
     46 C         141.3011  137.3978  164.1197 C.3     1  UNL1        0.1276
@<TRIPOS>BOND
     1    45    46    1
     2    46    40    1
     3    40    41   ar
     4    41    42   ar
     5     1    42    1
     6     1    15    1
     7    15    16   ar
     8    16    17   ar
     9    17    21    1
    10    21    22    1
    11    22    23   am
    12    22    24    2
    13    17    18   ar
    14    18    19    2
    15    18    20   ar
    16     1     2    1
    17     2     3    1
    18     3    27    1
    19    27    28   ar
    20    28    29   ar
    21    29    33    1
    22    33    34   ar
    23    34    35   ar
    24    35    36   ar
    25    36    37    1
    26    36    38   ar
    27    38    39   ar
    28    29    30   ar
    29    30    31   ar
    30     3     4    1
    31     4     5    1
    32     5     6    2
    33     6     7    1
    34     7     8    2
    35     8     9    1
    36     9    10    1
    37    10    11    2
    38    11    12    1
    39    12    13    2
    40    42    43   ar
    41    43    44   ar
    42    44    40   ar
    43     6     1    1
    44    13     8    1
    45    20    15   ar
    46    31    27   ar
    47    13     5    1
    48    39    33   ar
    49    23    25    1
    50    23    26    1
    51     2    14    1
    52    31    32    1
@<TRIPOS>MOLECULE
*****
 46 52 0 0 0
SMALL
GASTEIGER

@<TRIPOS>ATOM
      1 C         140.2300  141.9593  159.1787 C.3     1  UNL1        0.1707
      2 N         138.9023  141.7688  158.5074 N.3     1  UNL1       -0.2797
      3 C         138.8422  141.4177  157.0503 C.3     1  UNL1        0.1167
      4 C         140.1098  141.2570  156.2646 C.3     1  UNL1        0.0511
      5 C         141.4375  141.4474  156.9359 C.2     1  UNL1       -0.0037
      6 C         141.4977  141.7986  158.3930 C.2     1  UNL1        0.0800
      7 N         142.9414  141.9235  158.7805 N.2     1  UNL1       -0.2519
      8 C         143.7735  141.6495  157.5629 C.2     1  UNL1        0.0627
      9 C         145.2574  141.6299  157.3450 C.3     1  UNL1        0.0717
     10 C         145.8119  141.3161  155.9870 C.2     1  UNL1       -0.0198
     11 C         144.8825  141.0219  154.8470 C.2     1  UNL1       -0.0042
     12 C         143.3986  141.0415  155.0650 C.2     1  UNL1        0.0006
     13 C         142.8441  141.3553  156.4229 C.2     1  UNL1        0.0111
     14 H         138.3867  142.6415  158.6214 H       1  UNL1        0.1246
     15 C         141.2394  142.2394  160.2525 C.ar    1  UNL1        0.2494
     16 N         141.6701  141.2865  161.3278 N.ar    1  UNL1       -0.1281
     17 N         142.6921  141.9798  162.1793 N.ar    1  UNL1       -0.1735
     18 C         142.8929  143.3611  161.6301 C.ar    1  UNL1        0.4393
     19 O         143.8276  144.3996  162.1759 O.2     1  UNL1       -0.2210
     20 O         141.9951  143.5215  160.4392 O.2     1  UNL1       -0.3896
     21 C         143.3906  141.3945  163.3707 C.3     1  UNL1        0.2180
     22 C         144.7718  140.8275  163.2266 C.2     1  UNL1        0.2445
     23 N         145.0363  139.3958  163.5875 N.am    1  UNL1       -0.3272
     24 O         145.8886  141.6923  162.7217 O.2     1  UNL1       -0.2732
     25 H         144.3033  138.8282  163.9189 H       1  UNL1        0.1450
     26 H         145.9428  139.0237  163.4929 H       1  UNL1        0.1450
     27 C         137.5143  141.2272  156.3788 C.ar    1  UNL1        0.1319
     28 N         136.2746  140.6751  157.0177 N.ar    1  UNL1       -0.2282
     29 C         135.1872  140.6620  155.9844 C.ar    1  UNL1        0.1171
     30 C         135.7551  141.2060  154.7071 C.ar    1  UNL1        0.0942
     31 N         137.1933  141.5553  154.9508 N.ar    1  UNL1       -0.3385
     32 H         137.8171  141.9335  154.2897 H       1  UNL1        0.1672
     33 C         133.7792  140.1881  156.1921 C.ar    1  UNL1        0.1006
     34 C         132.6276  141.0889  155.8569 C.ar    1  UNL1        0.0230
     35 C         131.2197  140.6151  156.0646 C.ar    1  UNL1        0.0328
     36 C         130.9634  139.2405  156.6074 C.ar    1  UNL1        0.1592
     37 F         129.5554  138.7666  156.8151 F       1  UNL1       -0.2025
     38 C         132.1150  138.3397  156.9426 C.ar    1  UNL1        0.1284
     39 N         133.5229  138.8135  156.7350 N.ar    1  UNL1       -0.2399
     40 N         138.1645  143.3146  162.1724 N.ar    1  UNL1       -0.2497
     41 C         139.1991  143.5023  161.1026 C.ar    1  UNL1        0.0944
     42 C         139.3130  142.2172  160.3373 C.ar    1  UNL1        0.0439
     43 C         138.3487  141.2353  160.9341 C.ar    1  UNL1        0.1194
     44 N         137.6389  141.9136  162.0682 N.ar    1  UNL1       -0.1679
     45 C         138.0549  144.1662  164.6245 C.3     1  UNL1        0.0284
     46 C         137.7314  144.3468  163.1709 C.3     1  UNL1        0.1276
@<TRIPOS>BOND
     1    45    46    1
     2    46    40    1
     3    40    41   ar
     4    41    42   ar
     5     1    42    1
     6     1    15    1
     7    15    16   ar
     8    16    17   ar
     9    17    21    1
    10    21    22    1
    11    22    23   am
    12    22    24    2
    13    17    18   ar
    14    18    19    2
    15    18    20   ar
    16     1     2    1
    17     2     3    1
    18     3    27    1
    19    27    28   ar
    20    28    29   ar
    21    29    33    1
    22    33    34   ar
    23    34    35   ar
    24    35    36   ar
    25    36    37    1
    26    36    38   ar
    27    38    39   ar
    28    29    30   ar
    29    30    31   ar
    30     3     4    1
    31     4     5    1
    32     5     6    2
    33     6     7    1
    34     7     8    2
    35     8     9    1
    36     9    10    1
    37    10    11    2
    38    11    12    1
    39    12    13    2
    40    42    43   ar
    41    43    44   ar
    42    44    40   ar
    43     6     1    1
    44    13     8    1
    45    20    15   ar
    46    31    27   ar
    47    13     5    1
    48    39    33   ar
    49    23    25    1
    50    23    26    1
    51     2    14    1
    52    31    32    1
@<TRIPOS>MOLECULE
*****
 46 52 0 0 0
SMALL
GASTEIGER

@<TRIPOS>ATOM
      1 C         140.0028  141.4177  159.6354 C.3     1  UNL1        0.1707
      2 N         139.9905  140.5735  158.3956 N.3     1  UNL1       -0.2797
      3 C         139.7287  139.0999  158.4943 C.3     1  UNL1        0.1167
      4 C         139.4791  138.4704  159.8328 C.3     1  UNL1        0.0511
      5 C         139.4914  139.3146  161.0726 C.2     1  UNL1       -0.0037
      6 C         139.7532  140.7883  160.9739 C.2     1  UNL1        0.0800
      7 N         139.7038  141.3616  162.3592 N.2     1  UNL1       -0.2519
      8 C         139.4115  140.2422  163.3140 C.2     1  UNL1        0.0627
      9 C         139.2479  140.2115  164.8047 C.3     1  UNL1        0.0717
     10 C         138.9530  138.9157  165.5002 C.2     1  UNL1       -0.0198
     11 C         138.8217  137.6506  164.7051 C.2     1  UNL1       -0.0042
     12 C         138.9853  137.6813  163.2144 C.2     1  UNL1        0.0006
     13 C         139.2802  138.9771  162.5188 C.2     1  UNL1        0.0111
     14 H         140.9050  140.6814  157.9569 H       1  UNL1        0.1246
     15 C         140.1153  142.6264  160.5168 C.ar    1  UNL1        0.2494
     16 N         141.3161  143.0196  161.3248 N.ar    1  UNL1       -0.1281
     17 N         140.9896  144.2902  162.0522 N.ar    1  UNL1       -0.1735
     18 C         139.5869  144.6821  161.6936 C.ar    1  UNL1        0.4393
     19 O         138.8533  145.8904  162.1958 O.2     1  UNL1       -0.2210
     20 O         139.0465  143.6538  160.7446 O.2     1  UNL1       -0.3896
     21 C         141.9051  145.0375  162.9760 C.3     1  UNL1        0.2180
     22 C         143.3336  144.6056  163.1274 C.2     1  UNL1        0.2445
     23 N         144.0737  144.0370  161.9532 N.am    1  UNL1       -0.3272
     24 O         144.0220  144.7424  164.4531 O.2     1  UNL1       -0.2732
     25 H         143.6219  143.9472  161.0831 H       1  UNL1        0.1450
     26 H         145.0113  143.7536  162.0526 H       1  UNL1        0.1450
     27 C         139.7164  138.2556  157.2545 C.ar    1  UNL1        0.1319
     28 N         140.6759  137.1486  156.9322 N.ar    1  UNL1       -0.2282
     29 C         140.2950  136.5789  155.5978 C.ar    1  UNL1        0.1171
     30 C         139.1001  137.3339  155.0955 C.ar    1  UNL1        0.0942
     31 N         138.7425  138.3701  156.1194 N.ar    1  UNL1       -0.3385
     32 H         137.9991  139.0126  156.0573 H       1  UNL1        0.1672
     33 C         140.9874  135.4521  154.8901 C.ar    1  UNL1        0.1006
     34 C         141.8481  134.4972  155.6630 C.ar    1  UNL1        0.0230
     35 C         142.5406  133.3704  154.9553 C.ar    1  UNL1        0.0328
     36 C         142.3723  133.1986  153.4747 C.ar    1  UNL1        0.1592
     37 F         143.0648  132.0718  152.7670 F       1  UNL1       -0.2025
     38 C         141.5116  134.1535  152.7018 C.ar    1  UNL1        0.1284
     39 N         140.8192  135.2802  153.4095 N.ar    1  UNL1       -0.2399
     40 N         139.9999  144.1698  156.8984 N.ar    1  UNL1       -0.2497
     41 C         139.2706  143.2265  157.8085 C.ar    1  UNL1        0.0944
     42 C         140.2914  142.4669  158.6031 C.ar    1  UNL1        0.0439
     43 C         141.6515  142.9409  158.1839 C.ar    1  UNL1        0.1194
     44 N         141.4713  143.9933  157.1303 N.ar    1  UNL1       -0.1679
     45 C         139.7825  146.5641  155.9134 C.3     1  UNL1        0.0284
     46 C         139.3686  145.1224  155.9267 C.3     1  UNL1        0.1276
@<TRIPOS>BOND
     1    45    46    1
     2    46    40    1
     3    40    41   ar
     4    41    42   ar
     5     1    42    1
     6     1    15    1
     7    15    16   ar
     8    16    17   ar
     9    17    21    1
    10    21    22    1
    11    22    23   am
    12    22    24    2
    13    17    18   ar
    14    18    19    2
    15    18    20   ar
    16     1     2    1
    17     2     3    1
    18     3    27    1
    19    27    28   ar
    20    28    29   ar
    21    29    33    1
    22    33    34   ar
    23    34    35   ar
    24    35    36   ar
    25    36    37    1
    26    36    38   ar
    27    38    39   ar
    28    29    30   ar
    29    30    31   ar
    30     3     4    1
    31     4     5    1
    32     5     6    2
    33     6     7    1
    34     7     8    2
    35     8     9    1
    36     9    10    1
    37    10    11    2
    38    11    12    1
    39    12    13    2
    40    42    43   ar
    41    43    44   ar
    42    44    40   ar
    43     6     1    1
    44    13     8    1
    45    20    15   ar
    46    31    27   ar
    47    13     5    1
    48    39    33   ar
    49    23    25    1
    50    23    26    1
    51     2    14    1
    52    31    32    1
@<TRIPOS>MOLECULE
*****
 46 52 0 0 0
SMALL
GASTEIGER

@<TRIPOS>ATOM
      1 C         141.3542  141.3191  160.8146 C.3     1  UNL1        0.1707
      2 N         141.1933  142.0041  159.4899 N.3     1  UNL1       -0.2797
      3 C         140.4957  143.3296  159.4108 C.3     1  UNL1        0.1167
      4 C         139.9589  143.9701  160.6565 C.3     1  UNL1        0.0511
      5 C         140.1198  143.2851  161.9812 C.2     1  UNL1       -0.0037
      6 C         140.8174  141.9596  162.0602 C.2     1  UNL1        0.0800
      7 N         140.8266  141.5256  163.4960 N.2     1  UNL1       -0.2519
      8 C         140.1347  142.5829  164.3044 C.2     1  UNL1        0.0627
      9 C         139.8459  142.6959  165.7719 C.3     1  UNL1        0.0717
     10 C         139.1204  143.8963  166.3033 C.2     1  UNL1       -0.0198
     11 C         138.6835  144.9838  165.3670 C.2     1  UNL1       -0.0042
     12 C         138.9722  144.8708  163.8995 C.2     1  UNL1        0.0006
     13 C         139.6978  143.6703  163.3681 C.2     1  UNL1        0.0111
     14 H         140.6767  141.3630  158.8877 H       1  UNL1        0.1246
     15 C         141.7491  140.2871  161.8291 C.ar    1  UNL1        0.2494
     16 N         142.9306  140.3630  162.7500 N.ar    1  UNL1       -0.1281
     17 N         142.9435  139.1209  163.5909 N.ar    1  UNL1       -0.1735
     18 C         141.7699  138.2774  163.1896 C.ar    1  UNL1        0.4393
     19 O         141.3994  136.9467  163.7746 O.2     1  UNL1       -0.2210
     20 O         141.0317  138.9982  162.1008 O.2     1  UNL1       -0.3896
     21 C         143.9528  138.7819  164.6474 C.3     1  UNL1        0.2180
     22 C         143.5094  138.5512  166.0617 C.2     1  UNL1        0.2445
     23 N         144.2991  137.6426  166.9565 N.am    1  UNL1       -0.3272
     24 O         142.2764  139.2292  166.5812 O.2     1  UNL1       -0.2732
     25 H         145.1084  137.1976  166.6155 H       1  UNL1        0.1450
     26 H         144.0081  137.4911  167.8847 H       1  UNL1        0.1450
     27 C         140.3347  144.0147  158.0861 C.ar    1  UNL1        0.1319
     28 N         140.0860  145.4787  157.8752 N.ar    1  UNL1       -0.2282
     29 C         139.9919  145.7249  156.3985 C.ar    1  UNL1        0.1171
     30 C         140.1824  144.4129  155.6968 C.ar    1  UNL1        0.0942
     31 N         140.3943  143.3559  156.7398 N.ar    1  UNL1       -0.3385
     32 H         140.5459  142.3980  156.5705 H       1  UNL1        0.1672
     33 C         139.7497  147.0503  155.7392 C.ar    1  UNL1        0.1006
     34 C         140.3765  147.3527  154.4104 C.ar    1  UNL1        0.0230
     35 C         140.1343  148.6781  153.7512 C.ar    1  UNL1        0.0328
     36 C         139.2654  149.7011  154.4207 C.ar    1  UNL1        0.1592
     37 F         139.0232  151.0266  153.7614 F       1  UNL1       -0.2025
     38 C         138.6385  149.3987  155.7495 C.ar    1  UNL1        0.1284
     39 N         138.8807  148.0733  156.4087 N.ar    1  UNL1       -0.2399
     40 N         142.3971  138.4951  158.3645 N.ar    1  UNL1       -0.2497
     41 C         141.3431  139.2672  159.1015 C.ar    1  UNL1        0.0944
     42 C         142.0281  140.3202  159.9213 C.ar    1  UNL1        0.0439
     43 C         143.5054  140.1988  159.6910 C.ar    1  UNL1        0.1194
     44 N         143.7334  139.0708  158.7288 N.ar    1  UNL1       -0.1679
     45 C         140.8784  137.2734  156.6466 C.3     1  UNL1        0.0284
     46 C         142.1568  137.3485  157.4277 C.3     1  UNL1        0.1276
@<TRIPOS>BOND
     1    45    46    1
     2    46    40    1
     3    40    41   ar
     4    41    42   ar
     5     1    42    1
     6     1    15    1
     7    15    16   ar
     8    16    17   ar
     9    17    21    1
    10    21    22    1
    11    22    23   am
    12    22    24    2
    13    17    18   ar
    14    18    19    2
    15    18    20   ar
    16     1     2    1
    17     2     3    1
    18     3    27    1
    19    27    28   ar
    20    28    29   ar
    21    29    33    1
    22    33    34   ar
    23    34    35   ar
    24    35    36   ar
    25    36    37    1
    26    36    38   ar
    27    38    39   ar
    28    29    30   ar
    29    30    31   ar
    30     3     4    1
    31     4     5    1
    32     5     6    2
    33     6     7    1
    34     7     8    2
    35     8     9    1
    36     9    10    1
    37    10    11    2
    38    11    12    1
    39    12    13    2
    40    42    43   ar
    41    43    44   ar
    42    44    40   ar
    43     6     1    1
    44    13     8    1
    45    20    15   ar
    46    31    27   ar
    47    13     5    1
    48    39    33   ar
    49    23    25    1
    50    23    26    1
    51     2    14    1
    52    31    32    1
@<TRIPOS>MOLECULE
*****
 46 52 0 0 0
SMALL
GASTEIGER

@<TRIPOS>ATOM
      1 C         142.3556  140.7742  159.9439 C.3     1  UNL1        0.1707
      2 N         142.6725  139.7484  158.8963 N.3     1  UNL1       -0.2797
      3 C         142.1845  138.3389  159.0550 C.3     1  UNL1        0.1167
      4 C         141.3796  137.9552  160.2612 C.3     1  UNL1        0.0511
      5 C         141.0627  138.9809  161.3088 C.2     1  UNL1       -0.0037
      6 C         141.5507  140.3904  161.1501 C.2     1  UNL1        0.0800
      7 N         141.0855  141.1784  162.3387 N.2     1  UNL1       -0.2519
      8 C         140.3101  140.2560  163.2318 C.2     1  UNL1        0.0627
      9 C         139.6150  140.4773  164.5425 C.3     1  UNL1        0.0717
     10 C         138.9059  139.3404  165.2166 C.2     1  UNL1       -0.0198
     11 C         138.8918  137.9822  164.5801 C.2     1  UNL1       -0.0042
     12 C         139.5868  137.7609  163.2695 C.2     1  UNL1        0.0006
     13 C         140.2960  138.8978  162.5953 C.2     1  UNL1        0.0111
     14 H         143.6891  139.7021  158.8276 H       1  UNL1        0.1246
     15 C         142.3130  142.0922  160.6589 C.ar    1  UNL1        0.2494
     16 N         141.1363  143.0196  160.7290 N.ar    1  UNL1       -0.1281
     17 N         141.5359  144.2147  161.5427 N.ar    1  UNL1       -0.1735
     18 C         142.9596  144.0258  161.9755 C.ar    1  UNL1        0.4393
     19 O         143.7621  144.9811  162.8083 O.2     1  UNL1       -0.2210
     20 O         143.4399  142.7140  161.4292 O.2     1  UNL1       -0.3896
     21 C         140.6647  145.3920  161.8667 C.3     1  UNL1        0.2180
     22 C         139.5186  145.2365  162.8220 C.2     1  UNL1        0.2445
     23 N         139.7719  145.2170  164.3003 N.am    1  UNL1       -0.3272
     24 O         138.1194  145.1006  162.2990 O.2     1  UNL1       -0.2732
     25 H         140.6903  145.3062  164.6436 H       1  UNL1        0.1450
     26 H         139.0198  145.1150  164.9273 H       1  UNL1        0.1450
     27 C         142.5014  137.3131  158.0074 C.ar    1  UNL1        0.1319
     28 N         143.0344  135.9335  158.2572 N.ar    1  UNL1       -0.2282
     29 C         143.2033  135.2546  156.9303 C.ar    1  UNL1        0.1171
     30 C         142.7747  136.2146  155.8605 C.ar    1  UNL1        0.0942
     31 N         142.3408  137.4869  156.5262 N.ar    1  UNL1       -0.3385
     32 H         142.0090  138.2942  156.0708 H       1  UNL1        0.1672
     33 C         143.7117  133.8603  156.7117 C.ar    1  UNL1        0.1006
     34 C         143.3886  133.1352  155.4390 C.ar    1  UNL1        0.0230
     35 C         143.8969  131.7411  155.2203 C.ar    1  UNL1        0.0328
     36 C         144.7283  131.0720  156.2743 C.ar    1  UNL1        0.1592
     37 F         145.2367  129.6778  156.0557 F       1  UNL1       -0.2025
     38 C         145.0514  131.7971  157.5471 C.ar    1  UNL1        0.1284
     39 N         144.5431  133.1913  157.7657 N.ar    1  UNL1       -0.2399
     40 N         144.9876  142.5487  157.7103 N.ar    1  UNL1       -0.2497
     41 C         144.6232  141.5246  158.7440 C.ar    1  UNL1        0.0944
     42 C         143.1456  141.6157  158.9860 C.ar    1  UNL1        0.0439
     43 C         142.5968  142.6961  158.1019 C.ar    1  UNL1        0.1194
     44 N         143.7353  143.2727  157.3135 N.ar    1  UNL1       -0.1679
     45 C         146.8806  141.9876  156.0217 C.3     1  UNL1        0.0284
     46 C         146.3629  142.8040  157.1686 C.3     1  UNL1        0.1276
@<TRIPOS>BOND
     1    45    46    1
     2    46    40    1
     3    40    41   ar
     4    41    42   ar
     5     1    42    1
     6     1    15    1
     7    15    16   ar
     8    16    17   ar
     9    17    21    1
    10    21    22    1
    11    22    23   am
    12    22    24    2
    13    17    18   ar
    14    18    19    2
    15    18    20   ar
    16     1     2    1
    17     2     3    1
    18     3    27    1
    19    27    28   ar
    20    28    29   ar
    21    29    33    1
    22    33    34   ar
    23    34    35   ar
    24    35    36   ar
    25    36    37    1
    26    36    38   ar
    27    38    39   ar
    28    29    30   ar
    29    30    31   ar
    30     3     4    1
    31     4     5    1
    32     5     6    2
    33     6     7    1
    34     7     8    2
    35     8     9    1
    36     9    10    1
    37    10    11    2
    38    11    12    1
    39    12    13    2
    40    42    43   ar
    41    43    44   ar
    42    44    40   ar
    43     6     1    1
    44    13     8    1
    45    20    15   ar
    46    31    27   ar
    47    13     5    1
    48    39    33   ar
    49    23    25    1
    50    23    26    1
    51     2    14    1
    52    31    32    1
@<TRIPOS>MOLECULE
*****
 46 52 0 0 0
SMALL
GASTEIGER

@<TRIPOS>ATOM
      1 C         139.6830  141.1607  158.9259 C.3     1  UNL1        0.1707
      2 N         138.3005  141.2209  158.3472 N.3     1  UNL1       -0.2797
      3 C         138.0856  140.9476  156.8881 C.3     1  UNL1        0.1167
      4 C         139.2534  140.6140  156.0076 C.3     1  UNL1        0.0511
      5 C         140.6359  140.5538  156.5863 C.2     1  UNL1       -0.0037
      6 C         140.8507  140.8272  158.0454 C.2     1  UNL1        0.0800
      7 N         142.3175  140.6955  158.3306 N.2     1  UNL1       -0.2519
      8 C         143.0091  140.3407  157.0477 C.2     1  UNL1        0.0627
      9 C         144.4510  140.0861  156.7220 C.3     1  UNL1        0.0717
     10 C         144.8536  139.7439  155.3181 C.2     1  UNL1       -0.0198
     11 C         143.8143  139.6564  154.2401 C.2     1  UNL1       -0.0042
     12 C         142.3724  139.9110  154.5658 C.2     1  UNL1        0.0006
     13 C         141.9699  140.2532  155.9697 C.2     1  UNL1        0.0111
     14 H         137.9472  142.1610  158.5258 H       1  UNL1        0.1246
     15 C         140.7941  141.2240  159.9317 C.ar    1  UNL1        0.2494
     16 N         141.6885  142.4013  160.1845 N.ar    1  UNL1       -0.1281
     17 N         142.6530  142.0259  161.2703 N.ar    1  UNL1       -0.1735
     18 C         142.3546  140.6166  161.6884 C.ar    1  UNL1        0.4393
     19 O         143.0781  139.8394  162.7479 O.2     1  UNL1       -0.2210
     20 O         141.2057  140.1210  160.8611 O.2     1  UNL1       -0.3896
     21 C         143.7272  142.9054  161.8381 C.3     1  UNL1        0.2180
     22 C         143.3739  144.2458  162.4115 C.2     1  UNL1        0.2445
     23 N         142.3454  145.1032  161.7354 N.am    1  UNL1       -0.3272
     24 O         144.0492  144.7287  163.6608 O.2     1  UNL1       -0.2732
     25 H         141.9022  144.7862  160.9155 H       1  UNL1        0.1450
     26 H         142.1136  145.9829  162.1117 H       1  UNL1        0.1450
     27 C         136.7030  141.0077  156.3093 C.ar    1  UNL1        0.1319
     28 N         135.4880  140.3183  156.8553 N.ar    1  UNL1       -0.2282
     29 C         134.3268  140.6523  155.9665 C.ar    1  UNL1        0.1171
     30 C         134.8242  141.5482  154.8711 C.ar    1  UNL1        0.0942
     31 N         136.2929  141.7679  155.0830 N.ar    1  UNL1       -0.3385
     32 H         136.8838  142.3149  154.5166 H       1  UNL1        0.1672
     33 C         132.9158  140.1743  156.1422 C.ar    1  UNL1        0.1006
     34 C         132.6512  138.7754  156.6143 C.ar    1  UNL1        0.0230
     35 C         131.2403  138.2974  156.7900 C.ar    1  UNL1        0.0328
     36 C         130.0941  139.2183  156.4935 C.ar    1  UNL1        0.1592
     37 F         128.6831  138.7404  156.6692 F       1  UNL1       -0.2025
     38 C         130.3587  140.6173  156.0214 C.ar    1  UNL1        0.1284
     39 N         131.7696  141.0953  155.8457 N.ar    1  UNL1       -0.2399
     40 N         137.9803  142.7578  162.0268 N.ar    1  UNL1       -0.2497
     41 C         138.8984  142.8490  160.8440 C.ar    1  UNL1        0.0944
     42 C         138.9012  141.5162  160.1556 C.ar    1  UNL1        0.0439
     43 C         137.9848  140.6014  160.9129 C.ar    1  UNL1        0.1194
     44 N         137.4157  141.3688  162.0694 N.ar    1  UNL1       -0.1679
     45 C         137.8496  143.6333  164.4694 C.3     1  UNL1        0.0284
     46 C         137.6797  143.8618  162.9967 C.3     1  UNL1        0.1276
@<TRIPOS>BOND
     1    45    46    1
     2    46    40    1
     3    40    41   ar
     4    41    42   ar
     5     1    42    1
     6     1    15    1
     7    15    16   ar
     8    16    17   ar
     9    17    21    1
    10    21    22    1
    11    22    23   am
    12    22    24    2
    13    17    18   ar
    14    18    19    2
    15    18    20   ar
    16     1     2    1
    17     2     3    1
    18     3    27    1
    19    27    28   ar
    20    28    29   ar
    21    29    33    1
    22    33    34   ar
    23    34    35   ar
    24    35    36   ar
    25    36    37    1
    26    36    38   ar
    27    38    39   ar
    28    29    30   ar
    29    30    31   ar
    30     3     4    1
    31     4     5    1
    32     5     6    2
    33     6     7    1
    34     7     8    2
    35     8     9    1
    36     9    10    1
    37    10    11    2
    38    11    12    1
    39    12    13    2
    40    42    43   ar
    41    43    44   ar
    42    44    40   ar
    43     6     1    1
    44    13     8    1
    45    20    15   ar
    46    31    27   ar
    47    13     5    1
    48    39    33   ar
    49    23    25    1
    50    23    26    1
    51     2    14    1
    52    31    32    1
