@<TRIPOS>MOLECULE
*****
 33 37 0 0 0
SMALL
GASTEIGER

@<TRIPOS>ATOM
      1 C         141.2083  138.9994  161.2910 C.ar    1  UNL1        0.0790
      2 C         140.5483  138.5127  160.0350 C.ar    1  UNL1        0.0365
      3 C         141.5255  138.6679  158.9076 C.ar    1  UNL1        0.0962
      4 N         142.7896  139.2506  159.4668 N.ar    1  UNL1       -0.1723
      5 N         142.5935  139.4555  160.9398 N.ar    1  UNL1       -0.2531
      6 C         139.3579  139.0778  165.3921 C.ar    1  UNL1       -0.0225
      7 C         139.6437  137.7660  164.7232 C.ar    1  UNL1       -0.0042
      8 C         140.2606  137.7399  163.3562 C.ar    1  UNL1        0.0012
      9 C         140.5915  139.0256  162.6580 C.ar    1  UNL1        0.0173
     10 C         140.3056  140.3373  163.3269 C.ar    1  UNL1        0.0012
     11 C         139.6888  140.3635  164.6940 C.ar    1  UNL1       -0.0042
     12 C         139.3575  139.9360  167.8444 C.3     1  UNL1        0.0047
     13 C         138.7410  139.1039  166.7592 C.3     1  UNL1        0.0224
     14 C         137.5078  138.2980  167.0411 C.3     1  UNL1        0.0047
     15 C         143.6051  140.0178  161.8940 C.3     1  UNL1        0.1052
     16 C         144.2133  141.3643  161.6349 C.3     1  UNL1        0.0244
     17 C         145.2248  141.9266  162.5891 C.3     1  UNL1        0.0020
     18 C         145.6282  141.1424  163.8025 C.3     1  UNL1        0.0001
     19 C         145.0201  139.7959  164.0616 C.3     1  UNL1        0.0020
     20 C         144.0085  139.2337  163.1074 C.3     1  UNL1        0.0244
     21 C         141.2815  138.3042  157.4730 C.3     1  UNL1        0.1206
     22 N         141.7688  136.9899  156.9392 N.3     1  UNL1       -0.2646
     23 C         142.9525  136.3171  157.5686 C.3     1  UNL1        0.0941
     24 C         143.4398  135.0027  157.0348 C.3     1  UNL1        0.1095
     25 N         142.7432  134.3611  155.8715 N.pl3   1  UNL1       -0.2904
     26 C         141.5596  135.0338  155.2421 C.3     1  UNL1        0.1095
     27 C         141.0723  136.3482  155.7759 C.3     1  UNL1        0.0941
     28 C         143.2305  133.0467  155.3377 C.ar    1  UNL1        0.1318
     29 C         144.2102  132.2323  156.1295 C.ar    1  UNL1        0.0343
     30 C         144.6974  130.9179  155.5957 C.ar    1  UNL1        0.0045
     31 C         144.2050  130.4178  154.2701 C.ar    1  UNL1        0.0208
     32 C         143.2253  131.2322  153.4782 C.ar    1  UNL1        0.1003
     33 N         142.7380  132.5466  154.0120 N.ar    1  UNL1       -0.2292
@<TRIPOS>BOND
     1    12    13    1
     2    13    14    1
     3    13     6    1
     4     6     7   ar
     5     7     8   ar
     6     8     9   ar
     7     9     1    1
     8     1     2   ar
     9     2     3   ar
    10     3    21    1
    11    21    22    1
    12    22    23    1
    13    23    24    1
    14    24    25    1
    15    25    28    1
    16    28    29   ar
    17    29    30   ar
    18    30    31   ar
    19    31    32   ar
    20    32    33   ar
    21    25    26    1
    22    26    27    1
    23     3     4   ar
    24     4     5   ar
    25     5    15    1
    26    15    16    1
    27    16    17    1
    28    17    18    1
    29    18    19    1
    30    19    20    1
    31     9    10   ar
    32    10    11   ar
    33    11     6   ar
    34     5     1   ar
    35    20    15    1
    36    27    22    1
    37    33    28   ar
@<TRIPOS>MOLECULE
*****
 33 37 0 0 0
SMALL
GASTEIGER

@<TRIPOS>ATOM
      1 C         141.9605  138.6328  160.9430 C.ar    1  UNL1        0.0790
      2 C         141.5615  138.0458  159.6215 C.ar    1  UNL1        0.0365
      3 C         142.6570  138.3318  158.6375 C.ar    1  UNL1        0.0962
      4 N         143.7331  139.0954  159.3509 N.ar    1  UNL1       -0.1723
      5 N         143.3026  139.2815  160.7757 N.ar    1  UNL1       -0.2531
      6 C         139.5538  138.4753  164.7420 C.ar    1  UNL1       -0.0225
      7 C         139.4673  139.6771  163.8487 C.ar    1  UNL1       -0.0042
      8 C         140.2696  139.7296  162.5824 C.ar    1  UNL1        0.0012
      9 C         141.1583  138.5803  162.2093 C.ar    1  UNL1        0.0173
     10 C         141.2447  137.3785  163.1026 C.ar    1  UNL1        0.0012
     11 C         140.4425  137.3260  164.3690 C.ar    1  UNL1       -0.0042
     12 C         138.8196  139.5575  166.9869 C.3     1  UNL1        0.0047
     13 C         138.7515  138.4228  166.0084 C.3     1  UNL1        0.0224
     14 C         137.8812  137.2355  166.2962 C.3     1  UNL1        0.0047
     15 C         144.0781  139.9916  161.8455 C.3     1  UNL1        0.1052
     16 C         144.5269  141.4070  161.6323 C.3     1  UNL1        0.0244
     17 C         145.3024  142.1171  162.7021 C.3     1  UNL1        0.0020
     18 C         145.6292  141.4118  163.9850 C.3     1  UNL1        0.0001
     19 C         145.1805  139.9965  164.1981 C.3     1  UNL1        0.0020
     20 C         144.4050  139.2864  163.1283 C.3     1  UNL1        0.0244
     21 C         142.6735  137.9253  157.1938 C.3     1  UNL1        0.1206
     22 N         142.4962  136.4840  156.8183 N.3     1  UNL1       -0.2646
     23 C         143.2838  135.4220  157.5268 C.3     1  UNL1        0.0941
     24 C         143.1066  133.9807  157.1514 C.3     1  UNL1        0.1095
     25 N         142.1417  133.6012  156.0674 N.pl3   1  UNL1       -0.2904
     26 C         141.3541  134.6630  155.3589 C.3     1  UNL1        0.1095
     27 C         141.5313  136.1045  155.7343 C.3     1  UNL1        0.0941
     28 C         141.9643  132.1598  155.6919 C.ar    1  UNL1        0.1318
     29 C         140.8696  131.7600  154.7476 C.ar    1  UNL1        0.0343
     30 C         140.6922  130.3186  154.3721 C.ar    1  UNL1        0.0045
     31 C         141.6095  129.2771  154.9408 C.ar    1  UNL1        0.0208
     32 C         142.7043  129.6769  155.8852 C.ar    1  UNL1        0.1003
     33 N         142.8816  131.1182  156.2607 N.ar    1  UNL1       -0.2292
@<TRIPOS>BOND
     1    12    13    1
     2    13    14    1
     3    13     6    1
     4     6     7   ar
     5     7     8   ar
     6     8     9   ar
     7     9     1    1
     8     1     2   ar
     9     2     3   ar
    10     3    21    1
    11    21    22    1
    12    22    23    1
    13    23    24    1
    14    24    25    1
    15    25    28    1
    16    28    29   ar
    17    29    30   ar
    18    30    31   ar
    19    31    32   ar
    20    32    33   ar
    21    25    26    1
    22    26    27    1
    23     3     4   ar
    24     4     5   ar
    25     5    15    1
    26    15    16    1
    27    16    17    1
    28    17    18    1
    29    18    19    1
    30    19    20    1
    31     9    10   ar
    32    10    11   ar
    33    11     6   ar
    34     5     1   ar
    35    20    15    1
    36    27    22    1
    37    33    28   ar
@<TRIPOS>MOLECULE
*****
 33 37 0 0 0
SMALL
GASTEIGER

@<TRIPOS>ATOM
      1 C         142.5399  141.5222  163.7388 C.ar    1  UNL1        0.0790
      2 C         143.5881  141.0998  162.7525 C.ar    1  UNL1        0.0365
      3 C         143.1929  141.6230  161.4034 C.ar    1  UNL1        0.0962
      4 N         141.9004  142.3687  161.5559 N.ar    1  UNL1       -0.1723
      5 N         141.4968  142.3064  162.9993 N.ar    1  UNL1       -0.2531
      6 C         142.5267  140.5988  168.1430 C.ar    1  UNL1       -0.0225
      7 C         142.8705  141.9791  167.6672 C.ar    1  UNL1       -0.0042
      8 C         142.8749  142.2869  166.1991 C.ar    1  UNL1        0.0012
      9 C         142.5355  141.2144  165.2069 C.ar    1  UNL1        0.0173
     10 C         142.1917  139.8341  165.6828 C.ar    1  UNL1        0.0012
     11 C         142.1873  139.5263  167.1509 C.ar    1  UNL1       -0.0042
     12 C         142.5650  138.8664  170.0789 C.3     1  UNL1        0.0047
     13 C         142.5223  140.2910  169.6111 C.3     1  UNL1        0.0224
     14 C         142.4752  141.4077  170.6114 C.3     1  UNL1        0.0047
     15 C         140.2661  142.9204  163.5979 C.3     1  UNL1        0.1052
     16 C         140.3519  144.2472  164.2926 C.3     1  UNL1        0.0244
     17 C         139.1212  144.8613  164.8913 C.3     1  UNL1        0.0020
     18 C         137.8048  144.1487  164.7952 C.3     1  UNL1        0.0001
     19 C         137.7190  142.8221  164.1005 C.3     1  UNL1        0.0020
     20 C         138.9497  142.2080  163.5019 C.3     1  UNL1        0.0244
     21 C         143.9562  141.4337  160.1261 C.3     1  UNL1        0.1206
     22 N         143.6129  140.2978  159.2086 N.3     1  UNL1       -0.2646
     23 C         143.7523  140.4642  157.7244 C.3     1  UNL1        0.0941
     24 C         143.4090  139.3283  156.8068 C.3     1  UNL1        0.1095
     25 N         142.9264  138.0260  157.3736 N.pl3   1  UNL1       -0.2904
     26 C         142.7870  137.8596  158.8577 C.3     1  UNL1        0.1095
     27 C         143.1303  138.9955  159.7753 C.3     1  UNL1        0.0941
     28 C         142.5830  136.8900  156.4560 C.ar    1  UNL1        0.1318
     29 C         143.6554  135.9479  155.9951 C.ar    1  UNL1        0.0343
     30 C         143.3121  134.8120  155.0776 C.ar    1  UNL1        0.0045
     31 C         141.8966  134.6181  154.6210 C.ar    1  UNL1        0.0208
     32 C         140.8242  135.5603  155.0819 C.ar    1  UNL1        0.1003
     33 N         141.1675  136.6962  155.9994 N.ar    1  UNL1       -0.2292
@<TRIPOS>BOND
     1    12    13    1
     2    13    14    1
     3    13     6    1
     4     6     7   ar
     5     7     8   ar
     6     8     9   ar
     7     9     1    1
     8     1     2   ar
     9     2     3   ar
    10     3    21    1
    11    21    22    1
    12    22    23    1
    13    23    24    1
    14    24    25    1
    15    25    28    1
    16    28    29   ar
    17    29    30   ar
    18    30    31   ar
    19    31    32   ar
    20    32    33   ar
    21    25    26    1
    22    26    27    1
    23     3     4   ar
    24     4     5   ar
    25     5    15    1
    26    15    16    1
    27    16    17    1
    28    17    18    1
    29    18    19    1
    30    19    20    1
    31     9    10   ar
    32    10    11   ar
    33    11     6   ar
    34     5     1   ar
    35    20    15    1
    36    27    22    1
    37    33    28   ar
@<TRIPOS>MOLECULE
*****
 33 37 0 0 0
SMALL
GASTEIGER

@<TRIPOS>ATOM
      1 C         141.1562  142.5182  164.5440 C.ar    1  UNL1        0.0790
      2 C         141.5695  143.5766  163.5647 C.ar    1  UNL1        0.0365
      3 C         141.0663  143.1762  162.2096 C.ar    1  UNL1        0.0962
      4 N         140.3419  141.8704  162.3513 N.ar    1  UNL1       -0.1723
      5 N         140.3974  141.4638  163.7941 N.ar    1  UNL1       -0.2531
      6 C         142.0375  142.5084  168.9569 C.ar    1  UNL1       -0.0225
      7 C         143.1050  142.1185  167.9780 C.ar    1  UNL1       -0.0042
      8 C         142.8113  142.1218  166.5070 C.ar    1  UNL1        0.0012
      9 C         141.4499  142.5149  166.0150 C.ar    1  UNL1        0.0173
     10 C         140.3824  142.9048  166.9939 C.ar    1  UNL1        0.0012
     11 C         140.6761  142.9015  168.4648 C.ar    1  UNL1       -0.0042
     12 C         143.1017  143.6364  171.0413 C.3     1  UNL1        0.0047
     13 C         142.3313  142.5051  170.4278 C.3     1  UNL1        0.0224
     14 C         141.8546  141.3704  171.2853 C.3     1  UNL1        0.0047
     15 C         139.7992  140.2208  164.3835 C.3     1  UNL1        0.1052
     16 C         140.3301  138.8739  163.9906 C.3     1  UNL1        0.0244
     17 C         139.7319  137.6310  164.5800 C.3     1  UNL1        0.0020
     18 C         138.6029  137.7349  165.5621 C.3     1  UNL1        0.0001
     19 C         138.0721  139.0817  165.9549 C.3     1  UNL1        0.0020
     20 C         138.6703  140.3247  165.3656 C.3     1  UNL1        0.0244
     21 C         141.2544  143.9464  160.9363 C.3     1  UNL1        0.1206
     22 N         142.3051  143.5240  159.9525 N.3     1  UNL1       -0.2646
     23 C         143.4547  142.6721  160.4026 C.3     1  UNL1        0.0941
     24 C         144.5054  142.2497  159.4189 C.3     1  UNL1        0.1095
     25 N         144.4063  142.6793  157.9851 N.pl3   1  UNL1       -0.2904
     26 C         143.2568  143.5311  157.5350 C.3     1  UNL1        0.1095
     27 C         142.2060  143.9535  158.5188 C.3     1  UNL1        0.0941
     28 C         145.4570  142.2569  157.0013 C.ar    1  UNL1        0.1318
     29 C         146.8614  142.7656  157.1392 C.ar    1  UNL1        0.0343
     30 C         147.9120  142.3433  156.1554 C.ar    1  UNL1        0.0045
     31 C         147.5584  141.4122  155.0339 C.ar    1  UNL1        0.0208
     32 C         146.1540  140.9035  154.8960 C.ar    1  UNL1        0.1003
     33 N         145.1034  141.3258  155.8797 N.ar    1  UNL1       -0.2292
@<TRIPOS>BOND
     1    12    13    1
     2    13    14    1
     3    13     6    1
     4     6     7   ar
     5     7     8   ar
     6     8     9   ar
     7     9     1    1
     8     1     2   ar
     9     2     3   ar
    10     3    21    1
    11    21    22    1
    12    22    23    1
    13    23    24    1
    14    24    25    1
    15    25    28    1
    16    28    29   ar
    17    29    30   ar
    18    30    31   ar
    19    31    32   ar
    20    32    33   ar
    21    25    26    1
    22    26    27    1
    23     3     4   ar
    24     4     5   ar
    25     5    15    1
    26    15    16    1
    27    16    17    1
    28    17    18    1
    29    18    19    1
    30    19    20    1
    31     9    10   ar
    32    10    11   ar
    33    11     6   ar
    34     5     1   ar
    35    20    15    1
    36    27    22    1
    37    33    28   ar
@<TRIPOS>MOLECULE
*****
 33 37 0 0 0
SMALL
GASTEIGER

@<TRIPOS>ATOM
      1 C         142.7138  139.5163  160.3505 C.ar    1  UNL1        0.0790
      2 C         143.2354  139.4022  158.9487 C.ar    1  UNL1        0.0365
      3 C         142.6691  138.1519  158.3437 C.ar    1  UNL1        0.0962
      4 N         141.7975  137.4932  159.3716 N.ar    1  UNL1       -0.1723
      5 N         141.8251  138.3365  160.6118 N.ar    1  UNL1       -0.2531
      6 C         143.6506  142.8181  163.2608 C.ar    1  UNL1       -0.0225
      7 C         144.6966  141.7978  162.9221 C.ar    1  UNL1       -0.0042
      8 C         144.3843  140.6972  161.9520 C.ar    1  UNL1        0.0012
      9 C         143.0261  140.6169  161.3206 C.ar    1  UNL1        0.0173
     10 C         141.9801  141.6372  161.6594 C.ar    1  UNL1        0.0012
     11 C         142.2924  142.7379  162.6295 C.ar    1  UNL1       -0.0042
     12 C         144.6540  143.6046  165.5246 C.3     1  UNL1        0.0047
     13 C         143.9629  143.9188  164.2310 C.3     1  UNL1        0.0224
     14 C         143.5840  145.3336  163.9074 C.3     1  UNL1        0.0047
     15 C         141.0927  138.0501  161.8891 C.3     1  UNL1        0.1052
     16 C         139.5947  138.1197  161.9265 C.3     1  UNL1        0.0244
     17 C         138.8622  137.8333  163.2038 C.3     1  UNL1        0.0020
     18 C         139.6277  137.4774  164.4437 C.3     1  UNL1        0.0001
     19 C         141.1256  137.4078  164.4063 C.3     1  UNL1        0.0020
     20 C         141.8580  137.6942  163.1290 C.3     1  UNL1        0.0244
     21 C         142.9288  137.6487  156.9547 C.3     1  UNL1        0.1206
     22 N         142.6430  136.2171  156.6101 N.3     1  UNL1       -0.2646
     23 C         141.5726  135.8850  155.6130 C.3     1  UNL1        0.0941
     24 C         141.2868  134.4534  155.2683 C.3     1  UNL1        0.1095
     25 N         142.0714  133.3539  155.9207 N.pl3   1  UNL1       -0.2904
     26 C         143.1417  133.6859  156.9177 C.3     1  UNL1        0.1095
     27 C         143.4275  135.1176  157.2625 C.3     1  UNL1        0.0941
     28 C         141.7856  131.9222  155.5761 C.ar    1  UNL1        0.1318
     29 C         140.6607  131.5856  154.6426 C.ar    1  UNL1        0.0343
     30 C         140.3749  130.1540  154.2980 C.ar    1  UNL1        0.0045
     31 C         141.2139  129.0590  154.8867 C.ar    1  UNL1        0.0208
     32 C         142.3388  129.3955  155.8202 C.ar    1  UNL1        0.1003
     33 N         142.6246  130.8271  156.1648 N.ar    1  UNL1       -0.2292
@<TRIPOS>BOND
     1    12    13    1
     2    13    14    1
     3    13     6    1
     4     6     7   ar
     5     7     8   ar
     6     8     9   ar
     7     9     1    1
     8     1     2   ar
     9     2     3   ar
    10     3    21    1
    11    21    22    1
    12    22    23    1
    13    23    24    1
    14    24    25    1
    15    25    28    1
    16    28    29   ar
    17    29    30   ar
    18    30    31   ar
    19    31    32   ar
    20    32    33   ar
    21    25    26    1
    22    26    27    1
    23     3     4   ar
    24     4     5   ar
    25     5    15    1
    26    15    16    1
    27    16    17    1
    28    17    18    1
    29    18    19    1
    30    19    20    1
    31     9    10   ar
    32    10    11   ar
    33    11     6   ar
    34     5     1   ar
    35    20    15    1
    36    27    22    1
    37    33    28   ar
@<TRIPOS>MOLECULE
*****
 33 37 0 0 0
SMALL
GASTEIGER

@<TRIPOS>ATOM
      1 C         142.2193  138.2562  160.5763 C.ar    1  UNL1        0.0790
      2 C         143.0292  137.5003  159.5650 C.ar    1  UNL1        0.0365
      3 C         142.4055  137.7146  158.2177 C.ar    1  UNL1        0.0962
      4 N         141.2101  138.6030  158.3963 N.ar    1  UNL1       -0.1723
      5 N         141.0950  138.9377  159.8540 N.ar    1  UNL1       -0.2531
      6 C         143.0214  138.4461  165.0001 C.ar    1  UNL1       -0.0225
      7 C         143.9684  139.0991  164.0375 C.ar    1  UNL1       -0.0042
      8 C         143.7010  139.0358  162.5629 C.ar    1  UNL1        0.0012
      9 C         142.4866  138.3195  162.0509 C.ar    1  UNL1        0.0173
     10 C         141.5396  137.6665  163.0136 C.ar    1  UNL1        0.0012
     11 C         141.8070  137.7298  164.4882 C.ar    1  UNL1       -0.0042
     12 C         144.2274  137.5267  167.1097 C.3     1  UNL1        0.0047
     13 C         143.2887  138.5094  166.4748 C.3     1  UNL1        0.0224
     14 C         142.6175  139.5554  167.3145 C.3     1  UNL1        0.0047
     15 C         140.0408  139.8021  160.4795 C.3     1  UNL1        0.1052
     16 C         140.3578  141.2200  160.8529 C.3     1  UNL1        0.0244
     17 C         139.3035  142.0844  161.4784 C.3     1  UNL1        0.0020
     18 C         137.9323  141.5311  161.7306 C.3     1  UNL1        0.0001
     19 C         137.6153  140.1133  161.3572 C.3     1  UNL1        0.0020
     20 C         138.6696  139.2489  160.7317 C.3     1  UNL1        0.0244
     21 C         142.8918  137.1412  156.9198 C.3     1  UNL1        0.1206
     22 N         142.5943  135.7126  156.5727 N.3     1  UNL1       -0.2646
     23 C         143.3347  134.6039  157.2603 C.3     1  UNL1        0.0941
     24 C         143.0372  133.1753  156.9132 C.3     1  UNL1        0.1095
     25 N         141.9993  132.8553  155.8786 N.pl3   1  UNL1       -0.2904
     26 C         141.2589  133.9639  155.1911 C.3     1  UNL1        0.1095
     27 C         141.5564  135.3926  155.5381 C.3     1  UNL1        0.0941
     28 C         141.7017  131.4266  155.5315 C.ar    1  UNL1        0.1318
     29 C         140.5505  131.0986  154.6275 C.ar    1  UNL1        0.0343
     30 C         140.2530  129.6700  154.2804 C.ar    1  UNL1        0.0045
     31 C         141.1065  128.5694  154.8372 C.ar    1  UNL1        0.0208
     32 C         142.2577  128.8975  155.7412 C.ar    1  UNL1        0.1003
     33 N         142.5552  130.3261  156.0883 N.ar    1  UNL1       -0.2292
@<TRIPOS>BOND
     1    12    13    1
     2    13    14    1
     3    13     6    1
     4     6     7   ar
     5     7     8   ar
     6     8     9   ar
     7     9     1    1
     8     1     2   ar
     9     2     3   ar
    10     3    21    1
    11    21    22    1
    12    22    23    1
    13    23    24    1
    14    24    25    1
    15    25    28    1
    16    28    29   ar
    17    29    30   ar
    18    30    31   ar
    19    31    32   ar
    20    32    33   ar
    21    25    26    1
    22    26    27    1
    23     3     4   ar
    24     4     5   ar
    25     5    15    1
    26    15    16    1
    27    16    17    1
    28    17    18    1
    29    18    19    1
    30    19    20    1
    31     9    10   ar
    32    10    11   ar
    33    11     6   ar
    34     5     1   ar
    35    20    15    1
    36    27    22    1
    37    33    28   ar
@<TRIPOS>MOLECULE
*****
 33 37 0 0 0
SMALL
GASTEIGER

@<TRIPOS>ATOM
      1 C         140.5194  140.7890  161.4059 C.ar    1  UNL1        0.0790
      2 C         140.2062  140.0231  160.1547 C.ar    1  UNL1        0.0365
      3 C         140.8528  140.7332  159.0025 C.ar    1  UNL1        0.0962
      4 N         141.5655  141.9380  159.5415 N.ar    1  UNL1       -0.1723
      5 N         141.3594  141.9724  161.0269 N.ar    1  UNL1       -0.2531
      6 C         139.1746  139.7233  165.5659 C.ar    1  UNL1       -0.0225
      7 C         140.5734  139.4076  165.1260 C.ar    1  UNL1       -0.0042
      8 C         141.0217  139.7629  163.7393 C.ar    1  UNL1        0.0012
      9 C         140.0711  140.4338  162.7926 C.ar    1  UNL1        0.0173
     10 C         138.6723  140.7494  163.2326 C.ar    1  UNL1        0.0012
     11 C         138.2241  140.3942  164.6193 C.ar    1  UNL1       -0.0042
     12 C         137.5601  138.4458  167.1507 C.3     1  UNL1        0.0047
     13 C         138.7264  139.3681  166.9526 C.3     1  UNL1        0.0224
     14 C         139.4444  139.9351  168.1413 C.3     1  UNL1        0.0047
     15 C         141.8988  143.0085  161.9680 C.3     1  UNL1        0.1052
     16 C         143.3064  142.9009  162.4752 C.3     1  UNL1        0.0244
     17 C         143.8457  143.9370  163.4163 C.3     1  UNL1        0.0020
     18 C         142.9775  145.0806  163.8502 C.3     1  UNL1        0.0001
     19 C         141.5700  145.1882  163.3430 C.3     1  UNL1        0.0020
     20 C         141.0307  144.1521  162.4019 C.3     1  UNL1        0.0244
     21 C         140.7965  140.3124  157.5638 C.3     1  UNL1        0.1206
     22 N         141.1732  138.9131  157.1764 N.3     1  UNL1       -0.2646
     23 C         140.2450  138.0937  156.3297 C.3     1  UNL1        0.0941
     24 C         140.6217  136.6944  155.9423 C.3     1  UNL1        0.1095
     25 N         141.9266  136.1146  156.4016 N.pl3   1  UNL1       -0.2904
     26 C         142.8548  136.9339  157.2483 C.3     1  UNL1        0.1095
     27 C         142.4781  138.3333  157.6357 C.3     1  UNL1        0.0941
     28 C         142.3034  134.7153  156.0142 C.ar    1  UNL1        0.1318
     29 C         143.6858  134.2056  156.2956 C.ar    1  UNL1        0.0343
     30 C         144.0626  132.8063  155.9082 C.ar    1  UNL1        0.0045
     31 C         143.0570  131.9167  155.2395 C.ar    1  UNL1        0.0208
     32 C         141.6746  132.4264  154.9581 C.ar    1  UNL1        0.1003
     33 N         141.2978  133.8256  155.3455 N.ar    1  UNL1       -0.2292
@<TRIPOS>BOND
     1    12    13    1
     2    13    14    1
     3    13     6    1
     4     6     7   ar
     5     7     8   ar
     6     8     9   ar
     7     9     1    1
     8     1     2   ar
     9     2     3   ar
    10     3    21    1
    11    21    22    1
    12    22    23    1
    13    23    24    1
    14    24    25    1
    15    25    28    1
    16    28    29   ar
    17    29    30   ar
    18    30    31   ar
    19    31    32   ar
    20    32    33   ar
    21    25    26    1
    22    26    27    1
    23     3     4   ar
    24     4     5   ar
    25     5    15    1
    26    15    16    1
    27    16    17    1
    28    17    18    1
    29    18    19    1
    30    19    20    1
    31     9    10   ar
    32    10    11   ar
    33    11     6   ar
    34     5     1   ar
    35    20    15    1
    36    27    22    1
    37    33    28   ar
@<TRIPOS>MOLECULE
*****
 33 37 0 0 0
SMALL
GASTEIGER

@<TRIPOS>ATOM
      1 C         142.2173  139.8689  163.1959 C.ar    1  UNL1        0.0790
      2 C         142.4779  138.6445  162.3695 C.ar    1  UNL1        0.0365
      3 C         142.8405  139.0891  160.9836 C.ar    1  UNL1        0.0962
      4 N         142.8040  140.5884  160.9534 N.ar    1  UNL1       -0.1723
      5 N         142.4188  141.0703  162.3206 N.ar    1  UNL1       -0.2531
      6 C         141.0379  139.9277  167.5382 C.ar    1  UNL1       -0.0225
      7 C         142.4635  139.6662  167.1517 C.ar    1  UNL1       -0.0042
      8 C         142.8566  139.6466  165.7042 C.ar    1  UNL1        0.0012
      9 C         141.8242  139.8885  164.6433 C.ar    1  UNL1        0.0173
     10 C         140.3987  140.1500  165.0299 C.ar    1  UNL1        0.0012
     11 C         140.0055  140.1696  166.4773 C.ar    1  UNL1       -0.0042
     12 C         139.2586  140.3622  169.3808 C.3     1  UNL1        0.0047
     13 C         140.6448  139.9473  168.9856 C.3     1  UNL1        0.0224
     14 C         141.6380  139.5520  170.0379 C.3     1  UNL1        0.0047
     15 C         142.2627  142.5022  162.7392 C.3     1  UNL1        0.1052
     16 C         143.4414  143.2599  163.2747 C.3     1  UNL1        0.0244
     17 C         143.2852  144.6919  163.6933 C.3     1  UNL1        0.0020
     18 C         141.9505  145.3661  163.5763 C.3     1  UNL1        0.0001
     19 C         140.7718  144.6085  163.0407 C.3     1  UNL1        0.0020
     20 C         140.9280  143.1766  162.6222 C.3     1  UNL1        0.0244
     21 C         143.1799  138.1920  159.8303 C.3     1  UNL1        0.1206
     22 N         142.2168  138.0386  158.6907 N.3     1  UNL1       -0.2646
     23 C         140.9286  138.8072  158.6887 C.3     1  UNL1        0.0941
     24 C         139.9655  138.6537  157.5491 C.3     1  UNL1        0.1095
     25 N         140.2904  137.7317  156.4115 N.pl3   1  UNL1       -0.2904
     26 C         141.5785  136.9631  156.4134 C.3     1  UNL1        0.1095
     27 C         142.5418  137.1165  157.5531 C.3     1  UNL1        0.0941
     28 C         139.3272  137.5782  155.2718 C.ar    1  UNL1        0.1318
     29 C         139.7623  136.8956  154.0089 C.ar    1  UNL1        0.0343
     30 C         138.7992  136.7421  152.8693 C.ar    1  UNL1        0.0045
     31 C         137.4011  137.2711  152.9924 C.ar    1  UNL1        0.0208
     32 C         136.9660  137.9537  154.2553 C.ar    1  UNL1        0.1003
     33 N         137.9291  138.1072  155.3949 N.ar    1  UNL1       -0.2292
@<TRIPOS>BOND
     1    12    13    1
     2    13    14    1
     3    13     6    1
     4     6     7   ar
     5     7     8   ar
     6     8     9   ar
     7     9     1    1
     8     1     2   ar
     9     2     3   ar
    10     3    21    1
    11    21    22    1
    12    22    23    1
    13    23    24    1
    14    24    25    1
    15    25    28    1
    16    28    29   ar
    17    29    30   ar
    18    30    31   ar
    19    31    32   ar
    20    32    33   ar
    21    25    26    1
    22    26    27    1
    23     3     4   ar
    24     4     5   ar
    25     5    15    1
    26    15    16    1
    27    16    17    1
    28    17    18    1
    29    18    19    1
    30    19    20    1
    31     9    10   ar
    32    10    11   ar
    33    11     6   ar
    34     5     1   ar
    35    20    15    1
    36    27    22    1
    37    33    28   ar
@<TRIPOS>MOLECULE
*****
 33 37 0 0 0
SMALL
GASTEIGER

@<TRIPOS>ATOM
      1 C         140.1679  141.5668  163.5998 C.ar    1  UNL1        0.0790
      2 C         138.9572  141.7237  162.7282 C.ar    1  UNL1        0.0365
      3 C         139.4093  141.7007  161.2981 C.ar    1  UNL1        0.0962
      4 N         140.8995  141.5294  161.2859 N.ar    1  UNL1       -0.1723
      5 N         141.3683  141.4467  162.7083 N.ar    1  UNL1       -0.2531
      6 C         140.1942  141.4728  168.0987 C.ar    1  UNL1       -0.0225
      7 C         139.9319  140.2156  167.3238 C.ar    1  UNL1       -0.0042
      8 C         139.9231  140.2469  165.8241 C.ar    1  UNL1        0.0012
      9 C         140.1766  141.5355  165.0994 C.ar    1  UNL1        0.0173
     10 C         140.4389  142.7927  165.8743 C.ar    1  UNL1        0.0012
     11 C         140.4477  142.7614  167.3740 C.ar    1  UNL1       -0.0042
     12 C         140.0483  142.7147  170.3760 C.3     1  UNL1        0.0047
     13 C         140.2029  141.4415  169.5983 C.3     1  UNL1        0.0224
     14 C         140.3664  140.1369  170.3203 C.3     1  UNL1        0.0047
     15 C         142.7882  141.2742  163.1600 C.3     1  UNL1        0.1052
     16 C         143.6848  142.4699  163.2888 C.3     1  UNL1        0.0244
     17 C         145.1048  142.2974  163.7405 C.3     1  UNL1        0.0020
     18 C         145.6281  140.9293  164.0634 C.3     1  UNL1        0.0001
     19 C         144.7315  139.7336  163.9347 C.3     1  UNL1        0.0020
     20 C         143.3116  139.9062  163.4830 C.3     1  UNL1        0.0244
     21 C         138.5263  141.8266  160.0922 C.3     1  UNL1        0.1206
     22 N         138.8779  142.7965  159.0033 N.3     1  UNL1       -0.2646
     23 C         138.2916  142.6302  157.6326 C.3     1  UNL1        0.0941
     24 C         138.6432  143.6001  156.5438 C.3     1  UNL1        0.1095
     25 N         139.5811  144.7363  156.8255 N.pl3   1  UNL1       -0.2904
     26 C         140.1674  144.9027  158.1960 C.3     1  UNL1        0.1095
     27 C         139.8158  143.9327  159.2850 C.3     1  UNL1        0.0941
     28 C         139.9327  145.7063  155.7366 C.ar    1  UNL1        0.1318
     29 C         140.8120  145.2728  154.6013 C.ar    1  UNL1        0.0343
     30 C         141.1636  146.2427  153.5124 C.ar    1  UNL1        0.0045
     31 C         140.6360  147.6460  153.5588 C.ar    1  UNL1        0.0208
     32 C         139.7567  148.0795  154.6941 C.ar    1  UNL1        0.1003
     33 N         139.4051  147.1096  155.7830 N.ar    1  UNL1       -0.2292
@<TRIPOS>BOND
     1    12    13    1
     2    13    14    1
     3    13     6    1
     4     6     7   ar
     5     7     8   ar
     6     8     9   ar
     7     9     1    1
     8     1     2   ar
     9     2     3   ar
    10     3    21    1
    11    21    22    1
    12    22    23    1
    13    23    24    1
    14    24    25    1
    15    25    28    1
    16    28    29   ar
    17    29    30   ar
    18    30    31   ar
    19    31    32   ar
    20    32    33   ar
    21    25    26    1
    22    26    27    1
    23     3     4   ar
    24     4     5   ar
    25     5    15    1
    26    15    16    1
    27    16    17    1
    28    17    18    1
    29    18    19    1
    30    19    20    1
    31     9    10   ar
    32    10    11   ar
    33    11     6   ar
    34     5     1   ar
    35    20    15    1
    36    27    22    1
    37    33    28   ar
