@<TRIPOS>MOLECULE
*****
 26 28 0 0 0
SMALL
GASTEIGER

@<TRIPOS>ATOM
      1 C         142.5145  142.0182  168.4419 C.ar    1  UNL1        0.1384
      2 C         141.0333  142.2404  168.3603 C.ar    1  UNL1        0.0369
      3 C         140.1885  141.3535  167.4944 C.ar    1  UNL1        0.0025
      4 C         140.8248  140.2445  166.7101 C.ar    1  UNL1       -0.0077
      5 C         142.3060  140.0223  166.7918 C.ar    1  UNL1       -0.0154
      6 C         143.1508  140.9091  167.6577 C.ar    1  UNL1        0.0329
      7 C         142.6493  138.8577  165.9109 C.3     1  UNL1        0.0481
      8 C         141.3802  138.3601  165.2849 C.2     1  UNL1       -0.0421
      9 C         140.2527  139.2173  165.7788 C.2     1  UNL1       -0.0245
     10 C         142.9351  143.2035  170.7152 C.3     1  UNL1        0.2525
     11 O         143.3593  142.9050  169.3079 O.3     1  UNL1       -0.4714
     12 C         138.8068  139.0725  165.4068 C.3     1  UNL1        0.0666
     13 C         137.8200  138.5640  166.4156 C.3     1  UNL1        0.0112
     14 C         138.3476  139.4363  164.0259 C.ar    1  UNL1        0.1156
     15 N         138.3029  138.3913  162.9507 N.ar    1  UNL1       -0.2415
     16 C         137.8437  138.7550  161.5699 C.ar    1  UNL1        0.1193
     17 C         137.4291  140.1638  161.2641 C.ar    1  UNL1        0.1227
     18 N         137.4738  141.2089  162.3392 N.ar    1  UNL1       -0.2075
     19 C         137.9330  140.8451  163.7202 C.ar    1  UNL1        0.2393
     20 O         137.9777  141.8902  164.7953 O.3     1  UNL1       -0.4553
     21 C         138.7343  143.1657  164.5704 C.3     1  UNL1        0.2543
     22 C         141.2598  137.2078  164.3321 C.3     1  UNL1        0.0394
     23 C         141.5563  137.4053  162.8750 C.3     1  UNL1        0.0765
     24 N         142.2644  138.6450  162.4150 N.3     1  UNL1       -0.2700
     25 C         143.7622  138.6684  162.3378 C.3     1  UNL1        0.0897
     26 C         141.4746  139.8614  162.0322 C.3     1  UNL1        0.0897
@<TRIPOS>BOND
     1    10    11    1
     2    11     1    1
     3     1     2   ar
     4     2     3   ar
     5     3     4   ar
     6     4     5   ar
     7     5     6   ar
     8     5     7    1
     9     7     8    1
    10     8    22    1
    11    22    23    1
    12    23    24    1
    13    24    25    1
    14    24    26    1
    15     8     9    2
    16     9    12    1
    17    12    13    1
    18    12    14    1
    19    14    15   ar
    20    15    16   ar
    21    16    17   ar
    22    17    18   ar
    23    18    19   ar
    24    19    20    1
    25    20    21    1
    26     6     1   ar
    27    19    14   ar
    28     9     4    1
@<TRIPOS>MOLECULE
*****
 26 28 0 0 0
SMALL
GASTEIGER

@<TRIPOS>ATOM
      1 C         140.5960  140.3232  168.6413 C.ar    1  UNL1        0.1384
      2 C         141.0306  141.7467  168.4546 C.ar    1  UNL1        0.0369
      3 C         140.5564  142.5256  167.2636 C.ar    1  UNL1        0.0025
      4 C         139.6477  141.8811  166.2593 C.ar    1  UNL1       -0.0077
      5 C         139.2131  140.4576  166.4459 C.ar    1  UNL1       -0.0154
      6 C         139.6873  139.6787  167.6369 C.ar    1  UNL1        0.0329
      7 C         138.3194  140.0915  165.2981 C.3     1  UNL1        0.0481
      8 C         138.2017  141.2887  164.4021 C.2     1  UNL1       -0.0421
      9 C         139.0226  142.3947  164.9962 C.2     1  UNL1       -0.0245
     10 C         142.4864  139.0537  169.8921 C.3     1  UNL1        0.2525
     11 O         141.0702  139.5443  169.8322 O.3     1  UNL1       -0.4714
     12 C         139.1892  143.7725  164.4270 C.3     1  UNL1        0.0666
     13 C         138.6033  144.9546  165.1406 C.3     1  UNL1        0.0112
     14 C         139.9418  143.9682  163.1444 C.ar    1  UNL1        0.1156
     15 N         139.1946  144.1902  161.8627 N.ar    1  UNL1       -0.2415
     16 C         139.9471  144.3859  160.5800 C.ar    1  UNL1        0.1193
     17 C         141.4469  144.3597  160.5788 C.ar    1  UNL1        0.1227
     18 N         142.1941  144.1377  161.8604 N.ar    1  UNL1       -0.2075
     19 C         141.4416  143.9420  163.1432 C.ar    1  UNL1        0.2393
     20 O         142.1888  143.7201  164.4247 O.3     1  UNL1       -0.4553
     21 C         143.1558  142.5792  164.5412 C.3     1  UNL1        0.2543
     22 C         137.4033  141.3663  163.1346 C.3     1  UNL1        0.0394
     23 C         137.9794  140.8434  161.8522 C.3     1  UNL1        0.0765
     24 N         139.1911  139.9597  161.8795 N.3     1  UNL1       -0.2700
     25 C         140.5606  140.5610  161.7663 C.3     1  UNL1        0.0897
     26 C         139.0333  138.4747  162.0202 C.3     1  UNL1        0.0897
@<TRIPOS>BOND
     1    10    11    1
     2    11     1    1
     3     1     2   ar
     4     2     3   ar
     5     3     4   ar
     6     4     5   ar
     7     5     6   ar
     8     5     7    1
     9     7     8    1
    10     8    22    1
    11    22    23    1
    12    23    24    1
    13    24    25    1
    14    24    26    1
    15     8     9    2
    16     9    12    1
    17    12    13    1
    18    12    14    1
    19    14    15   ar
    20    15    16   ar
    21    16    17   ar
    22    17    18   ar
    23    18    19   ar
    24    19    20    1
    25    20    21    1
    26     6     1   ar
    27    19    14   ar
    28     9     4    1
@<TRIPOS>MOLECULE
*****
 26 28 0 0 0
SMALL
GASTEIGER

@<TRIPOS>ATOM
      1 C         141.9675  140.8836  168.9313 C.ar    1  UNL1        0.1384
      2 C         140.5058  141.0846  168.6613 C.ar    1  UNL1        0.0369
      3 C         140.0655  141.8544  167.4515 C.ar    1  UNL1        0.0025
      4 C         141.0869  142.4232  166.5117 C.ar    1  UNL1       -0.0077
      5 C         142.5486  142.2222  166.7818 C.ar    1  UNL1       -0.0154
      6 C         142.9889  141.4524  167.9916 C.ar    1  UNL1        0.0329
      7 C         143.3195  142.8951  165.6849 C.3     1  UNL1        0.0481
      8 C         142.3342  143.5120  164.7370 C.2     1  UNL1       -0.0421
      9 C         140.9544  143.2203  165.2480 C.2     1  UNL1       -0.0245
     10 C         142.6392  138.6349  170.0458 C.3     1  UNL1        0.2525
     11 O         142.4078  140.1139  170.1411 O.3     1  UNL1       -0.4714
     12 C         139.6679  143.6502  164.6077 C.3     1  UNL1        0.0666
     13 C         138.8602  144.7577  165.2170 C.3     1  UNL1        0.0112
     14 C         139.1889  142.9728  163.3581 C.ar    1  UNL1        0.1156
     15 N         139.1935  141.4755  163.2677 N.ar    1  UNL1       -0.2415
     16 C         138.7146  140.7979  162.0181 C.ar    1  UNL1        0.1193
     17 C         138.2310  141.6177  160.8588 C.ar    1  UNL1        0.1227
     18 N         138.2264  143.1149  160.9490 N.ar    1  UNL1       -0.2075
     19 C         138.7053  143.7925  162.1987 C.ar    1  UNL1        0.2393
     20 O         138.7007  145.2898  162.2889 O.3     1  UNL1       -0.4553
     21 C         139.8351  146.0798  161.7066 C.3     1  UNL1        0.2543
     22 C         142.6697  144.2848  163.4959 C.3     1  UNL1        0.0394
     23 C         144.0515  144.2110  162.9171 C.3     1  UNL1        0.0765
     24 N         144.4752  143.0004  162.1393 N.3     1  UNL1       -0.2700
     25 C         143.9998  142.8106  160.7293 C.3     1  UNL1        0.0897
     26 C         145.3742  141.9796  162.7715 C.3     1  UNL1        0.0897
@<TRIPOS>BOND
     1    10    11    1
     2    11     1    1
     3     1     2   ar
     4     2     3   ar
     5     3     4   ar
     6     4     5   ar
     7     5     6   ar
     8     5     7    1
     9     7     8    1
    10     8    22    1
    11    22    23    1
    12    23    24    1
    13    24    25    1
    14    24    26    1
    15     8     9    2
    16     9    12    1
    17    12    13    1
    18    12    14    1
    19    14    15   ar
    20    15    16   ar
    21    16    17   ar
    22    17    18   ar
    23    18    19   ar
    24    19    20    1
    25    20    21    1
    26     6     1   ar
    27    19    14   ar
    28     9     4    1
@<TRIPOS>MOLECULE
*****
 26 28 0 0 0
SMALL
GASTEIGER

@<TRIPOS>ATOM
      1 C         141.5422  140.8771  167.9189 C.ar    1  UNL1        0.1384
      2 C         142.9211  141.1415  167.3910 C.ar    1  UNL1        0.0369
      3 C         143.1183  142.1022  166.2560 C.ar    1  UNL1        0.0025
      4 C         141.9365  142.7986  165.6490 C.ar    1  UNL1       -0.0077
      5 C         140.5576  142.5342  166.1769 C.ar    1  UNL1       -0.0154
      6 C         140.3605  141.5735  167.3119 C.ar    1  UNL1        0.0329
      7 C         139.5908  143.3623  165.3835 C.3     1  UNL1        0.0481
      8 C         140.3722  144.1386  164.3652 C.2     1  UNL1       -0.0421
      9 C         141.8219  143.7901  164.5293 C.2     1  UNL1       -0.0245
     10 C         142.2861  139.9322  170.2219 C.3     1  UNL1        0.2525
     11 O         141.3451  139.9164  169.0539 O.3     1  UNL1       -0.4714
     12 C         142.9577  144.3372  163.7165 C.3     1  UNL1        0.0666
     13 C         143.7769  145.4774  164.2445 C.3     1  UNL1        0.0112
     14 C         143.2743  143.7441  162.3756 C.ar    1  UNL1        0.1156
     15 N         142.4662  144.1339  161.1734 N.ar    1  UNL1       -0.2415
     16 C         142.7827  143.5408  159.8325 C.ar    1  UNL1        0.1193
     17 C         143.9073  142.5580  159.6936 C.ar    1  UNL1        0.1227
     18 N         144.7154  142.1683  160.8957 N.ar    1  UNL1       -0.2075
     19 C         144.3989  142.7613  162.2367 C.ar    1  UNL1        0.2393
     20 O         145.2070  142.3715  163.4388 O.3     1  UNL1       -0.4553
     21 C         145.4514  140.9227  163.7406 C.3     1  UNL1        0.2543
     22 C         139.8037  145.0953  163.3594 C.3     1  UNL1        0.0394
     23 C         138.5402  144.7513  162.6279 C.3     1  UNL1        0.0765
     24 N         138.4119  143.4278  161.9338 N.3     1  UNL1       -0.2700
     25 C         137.6153  142.3243  162.5643 C.3     1  UNL1        0.0897
     26 C         139.0804  143.2078  160.6091 C.3     1  UNL1        0.0897
@<TRIPOS>BOND
     1    10    11    1
     2    11     1    1
     3     1     2   ar
     4     2     3   ar
     5     3     4   ar
     6     4     5   ar
     7     5     6   ar
     8     5     7    1
     9     7     8    1
    10     8    22    1
    11    22    23    1
    12    23    24    1
    13    24    25    1
    14    24    26    1
    15     8     9    2
    16     9    12    1
    17    12    13    1
    18    12    14    1
    19    14    15   ar
    20    15    16   ar
    21    16    17   ar
    22    17    18   ar
    23    18    19   ar
    24    19    20    1
    25    20    21    1
    26     6     1   ar
    27    19    14   ar
    28     9     4    1
@<TRIPOS>MOLECULE
*****
 26 28 0 0 0
SMALL
GASTEIGER

@<TRIPOS>ATOM
      1 C         139.9567  140.3906  168.5983 C.ar    1  UNL1        0.1384
      2 C         140.6042  141.7380  168.4756 C.ar    1  UNL1        0.0369
      3 C         140.5137  142.4990  167.1861 C.ar    1  UNL1        0.0025
      4 C         139.7758  141.9125  166.0193 C.ar    1  UNL1       -0.0077
      5 C         139.1282  140.5651  166.1420 C.ar    1  UNL1       -0.0154
      6 C         139.2187  139.8041  167.4315 C.ar    1  UNL1        0.0329
      7 C         138.4732  140.2444  164.8312 C.3     1  UNL1        0.0481
      8 C         138.7159  141.3937  163.8984 C.2     1  UNL1       -0.0421
      9 C         139.5209  142.4246  164.6327 C.2     1  UNL1       -0.0245
     10 C         140.6435  140.2787  171.1014 C.3     1  UNL1        0.2525
     11 O         140.0471  139.6296  169.8878 O.3     1  UNL1       -0.4714
     12 C         139.9890  143.7373  164.0778 C.3     1  UNL1        0.0666
     13 C         139.0533  144.9088  164.0326 C.3     1  UNL1        0.0112
     14 C         141.3926  143.8784  163.5682 C.ar    1  UNL1        0.1156
     15 N         142.5457  143.8449  164.5271 N.ar    1  UNL1       -0.2415
     16 C         143.9494  143.9861  164.0175 C.ar    1  UNL1        0.1193
     17 C         144.2001  144.1608  162.5489 C.ar    1  UNL1        0.1227
     18 N         143.0471  144.1943  161.5900 N.ar    1  UNL1       -0.2075
     19 C         141.6434  144.0531  162.0996 C.ar    1  UNL1        0.2393
     20 O         140.4904  144.0866  161.1407 O.3     1  UNL1       -0.4553
     21 C         140.3992  145.1776  160.1153 C.3     1  UNL1        0.2543
     22 C         138.2376  141.4945  162.4802 C.3     1  UNL1        0.0394
     23 C         138.0533  140.2517  161.6608 C.3     1  UNL1        0.0765
     24 N         139.2367  139.3947  161.3215 N.3     1  UNL1       -0.2700
     25 C         140.3276  139.9353  160.4453 C.3     1  UNL1        0.0897
     26 C         139.3292  137.9972  161.8585 C.3     1  UNL1        0.0897
@<TRIPOS>BOND
     1    10    11    1
     2    11     1    1
     3     1     2   ar
     4     2     3   ar
     5     3     4   ar
     6     4     5   ar
     7     5     6   ar
     8     5     7    1
     9     7     8    1
    10     8    22    1
    11    22    23    1
    12    23    24    1
    13    24    25    1
    14    24    26    1
    15     8     9    2
    16     9    12    1
    17    12    13    1
    18    12    14    1
    19    14    15   ar
    20    15    16   ar
    21    16    17   ar
    22    17    18   ar
    23    18    19   ar
    24    19    20    1
    25    20    21    1
    26     6     1   ar
    27    19    14   ar
    28     9     4    1
@<TRIPOS>MOLECULE
*****
 26 28 0 0 0
SMALL
GASTEIGER

@<TRIPOS>ATOM
      1 C         141.2102  140.1802  169.3954 C.ar    1  UNL1        0.1384
      2 C         139.8084  140.1800  168.8615 C.ar    1  UNL1        0.0369
      3 C         139.5568  139.8727  167.4150 C.ar    1  UNL1        0.0025
      4 C         140.7070  139.5658  166.5024 C.ar    1  UNL1       -0.0077
      5 C         142.1087  139.5661  167.0363 C.ar    1  UNL1       -0.0154
      6 C         142.3603  139.8733  168.4828 C.ar    1  UNL1        0.0329
      7 C         143.0354  139.2289  165.9059 C.3     1  UNL1        0.0481
      8 C         142.2063  139.0203  164.6734 C.2     1  UNL1       -0.0421
      9 C         140.7673  139.2285  165.0421 C.2     1  UNL1       -0.0245
     10 C         141.7608  141.8939  171.2689 C.3     1  UNL1        0.2525
     11 O         141.4617  140.4875  170.8419 O.3     1  UNL1       -0.4714
     12 C         139.5944  139.1187  164.1135 C.3     1  UNL1        0.0666
     13 C         138.9959  137.7756  163.8167 C.3     1  UNL1        0.0112
     14 C         139.0200  140.3518  163.4816 C.ar    1  UNL1        0.1156
     15 N         138.1849  141.2933  164.2979 N.ar    1  UNL1       -0.2415
     16 C         137.6104  142.5265  163.6661 C.ar    1  UNL1        0.1193
     17 C         137.8710  142.8183  162.2180 C.ar    1  UNL1        0.1227
     18 N         138.7060  141.8768  161.4017 N.ar    1  UNL1       -0.2075
     19 C         139.2805  140.6435  162.0335 C.ar    1  UNL1        0.2393
     20 O         140.1156  139.7021  161.2172 O.3     1  UNL1       -0.4553
     21 C         140.9495  140.2273  160.0864 C.3     1  UNL1        0.2543
     22 C         142.7251  138.6657  163.3113 C.3     1  UNL1        0.0394
     23 C         144.1575  138.9388  162.9599 C.3     1  UNL1        0.0765
     24 N         144.6252  140.3501  162.7618 N.3     1  UNL1       -0.2700
     25 C         145.4757  141.0119  163.8052 C.3     1  UNL1        0.0897
     26 C         144.2425  141.0997  161.5202 C.3     1  UNL1        0.0897
@<TRIPOS>BOND
     1    10    11    1
     2    11     1    1
     3     1     2   ar
     4     2     3   ar
     5     3     4   ar
     6     4     5   ar
     7     5     6   ar
     8     5     7    1
     9     7     8    1
    10     8    22    1
    11    22    23    1
    12    23    24    1
    13    24    25    1
    14    24    26    1
    15     8     9    2
    16     9    12    1
    17    12    13    1
    18    12    14    1
    19    14    15   ar
    20    15    16   ar
    21    16    17   ar
    22    17    18   ar
    23    18    19   ar
    24    19    20    1
    25    20    21    1
    26     6     1   ar
    27    19    14   ar
    28     9     4    1
@<TRIPOS>MOLECULE
*****
 26 28 0 0 0
SMALL
GASTEIGER

@<TRIPOS>ATOM
      1 C         141.6432  141.4897  168.5849 C.ar    1  UNL1        0.1384
      2 C         142.9911  141.5850  167.9339 C.ar    1  UNL1        0.0369
      3 C         143.1357  142.2647  166.6046 C.ar    1  UNL1        0.0025
      4 C         141.9323  142.8492  165.9263 C.ar    1  UNL1       -0.0077
      5 C         140.5843  142.7539  166.5773 C.ar    1  UNL1       -0.0154
      6 C         140.4398  142.0742  167.9066 C.ar    1  UNL1        0.0329
      7 C         139.5863  143.4187  165.6761 C.3     1  UNL1        0.0481
      8 C         140.3175  143.9248  164.4682 C.2     1  UNL1       -0.0421
      9 C         141.7674  143.5728  164.6228 C.2     1  UNL1       -0.0245
     10 C         140.8483  141.5301  171.0581 C.3     1  UNL1        0.2525
     11 O         141.4986  140.8099  169.9142 O.3     1  UNL1       -0.4714
     12 C         142.8605  143.8890  163.6455 C.3     1  UNL1        0.0666
     13 C         143.6505  145.1562  163.7879 C.3     1  UNL1        0.0112
     14 C         143.1637  142.9381  162.5258 C.ar    1  UNL1        0.1156
     15 N         143.7786  141.6023  162.8221 N.ar    1  UNL1       -0.2415
     16 C         144.0818  140.6512  161.7024 C.ar    1  UNL1        0.1193
     17 C         143.7703  141.0360  160.2865 C.ar    1  UNL1        0.1227
     18 N         143.1555  142.3717  159.9902 N.ar    1  UNL1       -0.2075
     19 C         142.8522  143.3228  161.1099 C.ar    1  UNL1        0.2393
     20 O         142.2374  144.6585  160.8136 O.3     1  UNL1       -0.4553
     21 C         141.2046  144.7858  159.7333 C.3     1  UNL1        0.2543
     22 C         139.7061  144.6547  163.3090 C.3     1  UNL1        0.0394
     23 C         138.3195  144.3098  162.8526 C.3     1  UNL1        0.0765
     24 N         138.0274  142.9431  162.3079 N.3     1  UNL1       -0.2700
     25 C         138.4046  142.6017  160.8968 C.3     1  UNL1        0.0897
     26 C         137.3581  141.9177  163.1743 C.3     1  UNL1        0.0897
@<TRIPOS>BOND
     1    10    11    1
     2    11     1    1
     3     1     2   ar
     4     2     3   ar
     5     3     4   ar
     6     4     5   ar
     7     5     6   ar
     8     5     7    1
     9     7     8    1
    10     8    22    1
    11    22    23    1
    12    23    24    1
    13    24    25    1
    14    24    26    1
    15     8     9    2
    16     9    12    1
    17    12    13    1
    18    12    14    1
    19    14    15   ar
    20    15    16   ar
    21    16    17   ar
    22    17    18   ar
    23    18    19   ar
    24    19    20    1
    25    20    21    1
    26     6     1   ar
    27    19    14   ar
    28     9     4    1
@<TRIPOS>MOLECULE
*****
 26 28 0 0 0
SMALL
GASTEIGER

@<TRIPOS>ATOM
      1 C         141.6204  141.7391  169.7325 C.ar    1  UNL1        0.1384
      2 C         141.1811  140.3078  169.6419 C.ar    1  UNL1        0.0369
      3 C         140.3968  139.8378  168.4528 C.ar    1  UNL1        0.0025
      4 C         140.0517  140.7992  167.3543 C.ar    1  UNL1       -0.0077
      5 C         140.4910  142.2305  167.4450 C.ar    1  UNL1       -0.0154
      6 C         141.2753  142.7005  168.6341 C.ar    1  UNL1        0.0329
      7 C         140.0066  142.9427  166.2168 C.3     1  UNL1        0.0481
      8 C         139.2680  141.9515  165.3672 C.2     1  UNL1       -0.0421
      9 C         139.2959  140.6267  166.0702 C.2     1  UNL1       -0.0245
     10 C         143.3036  143.4039  170.8026 C.3     1  UNL1        0.2525
     11 O         142.4047  142.2091  170.9216 O.3     1  UNL1       -0.4714
     12 C         138.6766  139.3531  165.5759 C.3     1  UNL1        0.0666
     13 C         137.8001  138.5433  166.4847 C.3     1  UNL1        0.0112
     14 C         138.9339  138.8892  164.1729 C.ar    1  UNL1        0.1156
     15 N         138.0045  139.2934  163.0670 N.ar    1  UNL1       -0.2415
     16 C         138.2616  138.8295  161.6639 C.ar    1  UNL1        0.1193
     17 C         139.4482  137.9614  161.3666 C.ar    1  UNL1        0.1227
     18 N         140.3777  137.5572  162.4724 N.ar    1  UNL1       -0.2075
     19 C         140.1205  138.0211  163.8756 C.ar    1  UNL1        0.2393
     20 O         141.0499  137.6169  164.9814 O.3     1  UNL1       -0.4553
     21 C         142.3341  138.3628  165.1920 C.3     1  UNL1        0.2543
     22 C         138.6159  142.2352  164.0464 C.3     1  UNL1        0.0394
     23 C         139.3065  143.1086  163.0413 C.3     1  UNL1        0.0765
     24 N         140.6969  142.7754  162.5878 N.3     1  UNL1       -0.2700
     25 C         141.0422  141.3682  162.1997 C.3     1  UNL1        0.0897
     26 C         141.7420  143.8494  162.5222 C.3     1  UNL1        0.0897
@<TRIPOS>BOND
     1    10    11    1
     2    11     1    1
     3     1     2   ar
     4     2     3   ar
     5     3     4   ar
     6     4     5   ar
     7     5     6   ar
     8     5     7    1
     9     7     8    1
    10     8    22    1
    11    22    23    1
    12    23    24    1
    13    24    25    1
    14    24    26    1
    15     8     9    2
    16     9    12    1
    17    12    13    1
    18    12    14    1
    19    14    15   ar
    20    15    16   ar
    21    16    17   ar
    22    17    18   ar
    23    18    19   ar
    24    19    20    1
    25    20    21    1
    26     6     1   ar
    27    19    14   ar
    28     9     4    1
@<TRIPOS>MOLECULE
*****
 26 28 0 0 0
SMALL
GASTEIGER

@<TRIPOS>ATOM
      1 C         139.9299  140.1933  168.6909 C.ar    1  UNL1        0.1384
      2 C         139.1680  139.8668  167.4408 C.ar    1  UNL1        0.0369
      3 C         139.6760  140.3343  166.1092 C.ar    1  UNL1        0.0025
      4 C         140.9459  141.1285  166.0276 C.ar    1  UNL1       -0.0077
      5 C         141.7077  141.4550  167.2777 C.ar    1  UNL1       -0.0154
      6 C         141.1997  140.9875  168.6094 C.ar    1  UNL1        0.0329
      7 C         142.9195  142.2488  166.8881 C.3     1  UNL1        0.0481
      8 C         142.9065  142.4127  165.3972 C.2     1  UNL1       -0.0421
      9 C         141.6867  141.7203  164.8654 C.2     1  UNL1       -0.0245
     10 C         137.9874  139.9504  170.3991 C.3     1  UNL1        0.2525
     11 O         139.4218  139.7258  170.0226 O.3     1  UNL1       -0.4714
     12 C         141.2793  141.6348  163.4243 C.3     1  UNL1        0.0666
     13 C         141.2932  140.3115  162.7182 C.3     1  UNL1        0.0112
     14 C         140.8579  142.8726  162.6893 C.ar    1  UNL1        0.1156
     15 N         141.8305  143.5802  161.7929 N.ar    1  UNL1       -0.2415
     16 C         141.4093  144.8180  161.0578 C.ar    1  UNL1        0.1193
     17 C         140.0154  145.3483  161.2190 C.ar    1  UNL1        0.1227
     18 N         139.0428  144.6407  162.1154 N.ar    1  UNL1       -0.2075
     19 C         139.4641  143.4028  162.8505 C.ar    1  UNL1        0.2393
     20 O         138.4915  142.6953  163.7468 O.3     1  UNL1       -0.4553
     21 C         137.4881  141.7453  163.1632 C.3     1  UNL1        0.2543
     22 C         143.9330  143.1412  164.5812 C.3     1  UNL1        0.0394
     23 C         145.1306  142.4077  164.0543 C.3     1  UNL1        0.0765
     24 N         144.9502  141.1364  163.2789 N.3     1  UNL1       -0.2700
     25 C         145.0338  139.8125  163.9790 C.3     1  UNL1        0.0897
     26 C         144.6862  141.1891  161.8033 C.3     1  UNL1        0.0897
@<TRIPOS>BOND
     1    10    11    1
     2    11     1    1
     3     1     2   ar
     4     2     3   ar
     5     3     4   ar
     6     4     5   ar
     7     5     6   ar
     8     5     7    1
     9     7     8    1
    10     8    22    1
    11    22    23    1
    12    23    24    1
    13    24    25    1
    14    24    26    1
    15     8     9    2
    16     9    12    1
    17    12    13    1
    18    12    14    1
    19    14    15   ar
    20    15    16   ar
    21    16    17   ar
    22    17    18   ar
    23    18    19   ar
    24    19    20    1
    25    20    21    1
    26     6     1   ar
    27    19    14   ar
    28     9     4    1
