@<TRIPOS>MOLECULE
*****
 36 40 0 0 0
SMALL
GASTEIGER

@<TRIPOS>ATOM
      1 C         139.9166  137.9848  157.8241 C.3     1  UNL1        0.0177
      2 C         139.9714  139.3563  158.4293 C.3     1  UNL1        0.0626
      3 C         140.0239  140.5655  157.5432 C.3     1  UNL1        0.0436
      4 C         140.0787  141.9369  158.1483 C.2     1  UNL1       -0.0045
      5 C         140.0810  142.0991  159.6395 C.2     1  UNL1        0.0735
      6 N         140.1406  143.5662  159.9460 N.2     1  UNL1       -0.2523
      7 C         140.1752  144.3107  158.6443 C.2     1  UNL1        0.0627
      8 C         140.2366  145.7755  158.3271 C.3     1  UNL1        0.0717
      9 C         140.2597  146.2333  156.8989 C.2     1  UNL1       -0.0198
     10 C         140.2215  145.2262  155.7878 C.2     1  UNL1       -0.0042
     11 C         140.1601  143.7615  156.1050 C.2     1  UNL1        0.0006
     12 C         140.1370  143.3037  157.5332 C.2     1  UNL1        0.0111
     13 C         140.0284  140.8899  160.5256 C.3     1  UNL1        0.1250
     14 N         139.9737  139.5185  159.9205 N.3     1  UNL1       -0.2642
     15 C         140.0307  141.0521  162.0168 C.ar    1  UNL1        0.0528
     16 C         141.3283  141.2124  162.7518 C.ar    1  UNL1        0.1399
     17 F         142.6238  141.2104  161.9957 F       1  UNL1       -0.2044
     18 C         141.3305  141.3746  164.2431 C.ar    1  UNL1        0.0295
     19 C         140.0351  141.3766  164.9992 C.ar    1  UNL1        0.0044
     20 C         138.7374  141.2163  164.2641 C.ar    1  UNL1        0.0295
     21 C         138.7352  141.0541  162.7730 C.ar    1  UNL1        0.1399
     22 F         137.4375  140.8938  162.0379 F       1  UNL1       -0.2044
     23 C         140.0373  141.5388  166.4904 C.ar    1  UNL1        0.0001
     24 C         139.6458  140.3889  167.3705 C.ar    1  UNL1        0.0000
     25 C         139.6481  140.5512  168.8617 C.ar    1  UNL1        0.0011
     26 C         140.0419  141.8633  169.4729 C.ar    1  UNL1        0.0140
     27 C         140.4334  143.0131  168.5927 C.ar    1  UNL1        0.0011
     28 C         140.4311  142.8508  167.1014 C.ar    1  UNL1        0.0000
     29 C         140.0442  142.0256  170.9640 C.2     1  UNL1        0.0729
     30 O         139.3284  143.1837  171.5935 O.co2   1  UNL1       -0.5446
     31 O         140.7622  141.0296  171.8257 O.co2   1  UNL1       -0.5446
     32 C         139.9211  138.3093  160.8066 C.3     1  UNL1        0.1055
     33 C         141.1036  137.9506  161.6568 C.3     1  UNL1        0.1486
     34 C         140.1873  137.6572  162.8075 C.3     1  UNL1        0.0368
     35 C         142.0200  138.2439  160.5061 C.3     1  UNL1        0.0368
     36 F         142.2862  137.5919  162.5070 F       1  UNL1       -0.2386
@<TRIPOS>UNITY_ATOM_ATTR
30 1
charge -1
@<TRIPOS>BOND
     1     2     1    1
     2     2     3    1
     3     3     4    1
     4     4     5    2
     5     5     6    1
     6     6     7    2
     7     7     8    1
     8     8     9    1
     9     9    10    2
    10    10    11    1
    11    11    12    2
    12     5    13    1
    13    13    15    1
    14    15    16   ar
    15    16    17    1
    16    16    18   ar
    17    18    19   ar
    18    19    23    1
    19    23    24   ar
    20    24    25   ar
    21    25    26   ar
    22    26    29    1
    23    29    30   ar
    24    29    31   ar
    25    26    27   ar
    26    27    28   ar
    27    19    20   ar
    28    20    21   ar
    29    21    22    1
    30    13    14    1
    31    14    32    1
    32    32    33    1
    33    33    34    1
    34    33    35    1
    35    33    36    1
    36    14     2    1
    37    12     4    1
    38    21    15   ar
    39    12     7    1
    40    28    23   ar
@<TRIPOS>MOLECULE
*****
 36 40 0 0 0
SMALL
GASTEIGER

@<TRIPOS>ATOM
      1 C         139.9227  137.9789  157.8196 C.3     1  UNL1        0.0177
      2 C         139.9825  139.3506  158.4237 C.3     1  UNL1        0.0626
      3 C         140.0392  140.5590  157.5367 C.3     1  UNL1        0.0436
      4 C         140.0989  141.9307  158.1408 C.2     1  UNL1       -0.0045
      5 C         140.1021  142.0940  159.6319 C.2     1  UNL1        0.0735
      6 N         140.1670  143.5611  159.9372 N.2     1  UNL1       -0.2523
      7 C         140.2039  144.3045  158.6349 C.2     1  UNL1        0.0627
      8 C         140.2704  145.7688  158.3166 C.3     1  UNL1        0.0717
      9 C         140.2949  146.2254  156.8881 C.2     1  UNL1       -0.0198
     10 C         140.2528  145.2177  155.7778 C.2     1  UNL1       -0.0042
     11 C         140.1863  143.7534  156.0961 C.2     1  UNL1        0.0006
     12 C         140.1619  143.2968  157.5246 C.2     1  UNL1        0.0111
     13 C         140.0455  140.8857  160.5189 C.3     1  UNL1        0.1250
     14 N         139.9857  139.5140  159.9148 N.3     1  UNL1       -0.2642
     15 C         140.0486  141.0490  162.0099 C.ar    1  UNL1        0.0528
     16 C         138.7532  141.0606  162.7659 C.ar    1  UNL1        0.1399
     17 F         137.4545  140.9089  162.0308 F       1  UNL1       -0.2044
     18 C         138.7564  141.2240  164.2570 C.ar    1  UNL1        0.0295
     19 C         140.0550  141.3757  164.9921 C.ar    1  UNL1        0.0044
     20 C         141.3506  141.3641  164.2361 C.ar    1  UNL1        0.0295
     21 C         141.3473  141.2007  162.7451 C.ar    1  UNL1        0.1399
     22 F         142.6428  141.1891  161.9890 F       1  UNL1       -0.2044
     23 C         140.0582  141.5390  166.4832 C.ar    1  UNL1        0.0001
     24 C         139.6481  140.3960  167.3638 C.ar    1  UNL1        0.0000
     25 C         139.6513  140.5594  168.8548 C.ar    1  UNL1        0.0011
     26 C         140.0645  141.8658  169.4654 C.ar    1  UNL1        0.0140
     27 C         140.4746  143.0088  168.5848 C.ar    1  UNL1        0.0011
     28 C         140.4714  142.8454  167.0936 C.ar    1  UNL1        0.0000
     29 C         140.0677  142.0292  170.9564 C.2     1  UNL1        0.0729
     30 O         140.7818  141.0310  171.8188 O.co2   1  UNL1       -0.5446
     31 O         139.3567  143.1908  171.5850 O.co2   1  UNL1       -0.5446
     32 C         139.9290  138.3057  160.8018 C.3     1  UNL1        0.1055
     33 C         141.1114  137.9419  161.6501 C.3     1  UNL1        0.1486
     34 C         140.1956  137.6509  162.8019 C.3     1  UNL1        0.0368
     35 C         142.0273  138.2329  160.4984 C.3     1  UNL1        0.0368
     36 F         142.2938  137.5782  162.4984 F       1  UNL1       -0.2386
@<TRIPOS>UNITY_ATOM_ATTR
30 1
charge -1
@<TRIPOS>BOND
     1     2     1    1
     2     2     3    1
     3     3     4    1
     4     4     5    2
     5     5     6    1
     6     6     7    2
     7     7     8    1
     8     8     9    1
     9     9    10    2
    10    10    11    1
    11    11    12    2
    12     5    13    1
    13    13    15    1
    14    15    16   ar
    15    16    17    1
    16    16    18   ar
    17    18    19   ar
    18    19    23    1
    19    23    24   ar
    20    24    25   ar
    21    25    26   ar
    22    26    29    1
    23    29    30   ar
    24    29    31   ar
    25    26    27   ar
    26    27    28   ar
    27    19    20   ar
    28    20    21   ar
    29    21    22    1
    30    13    14    1
    31    14    32    1
    32    32    33    1
    33    33    34    1
    34    33    35    1
    35    33    36    1
    36    14     2    1
    37    12     4    1
    38    21    15   ar
    39    12     7    1
    40    28    23   ar
@<TRIPOS>MOLECULE
*****
 36 40 0 0 0
SMALL
GASTEIGER

@<TRIPOS>ATOM
      1 C         139.9582  138.0679  158.0576 C.3     1  UNL1        0.0177
      2 C         140.1070  139.4753  158.5551 C.3     1  UNL1        0.0626
      3 C         139.9924  140.6249  157.5984 C.3     1  UNL1        0.0436
      4 C         140.1412  142.0322  158.0959 C.2     1  UNL1       -0.0045
      5 C         140.4046  142.2898  159.5499 C.2     1  UNL1        0.0735
      6 N         140.5047  143.7734  159.7471 N.2     1  UNL1       -0.2523
      7 C         140.3032  144.4327  158.4149 C.2     1  UNL1        0.0627
      8 C         140.2953  145.8739  157.9993 C.3     1  UNL1        0.0717
      9 C         140.0627  146.2390  156.5632 C.2     1  UNL1       -0.0198
     10 C         139.8380  145.1629  155.5426 C.2     1  UNL1       -0.0042
     11 C         139.8459  143.7217  155.9583 C.2     1  UNL1        0.0006
     12 C         140.0785  143.3566  157.3944 C.2     1  UNL1        0.0111
     13 C         140.5192  141.1401  160.5065 C.3     1  UNL1        0.1250
     14 N         140.3704  139.7328  160.0091 N.3     1  UNL1       -0.2642
     15 C         140.7826  141.3976  161.9606 C.ar    1  UNL1        0.0528
     16 C         142.1709  141.2503  162.5089 C.ar    1  UNL1        0.1399
     17 F         143.2959  140.8454  161.6031 F       1  UNL1       -0.2044
     18 C         142.4343  141.5079  163.9630 C.ar    1  UNL1        0.0295
     19 C         141.3093  141.9128  164.8687 C.ar    1  UNL1        0.0044
     20 C         139.9209  142.0601  164.3204 C.ar    1  UNL1        0.0295
     21 C         139.6575  141.8026  162.8664 C.ar    1  UNL1        0.1399
     22 F         138.2692  141.9499  162.3180 F       1  UNL1       -0.2044
     23 C         141.5727  142.1704  166.3228 C.ar    1  UNL1        0.0001
     24 C         142.9588  142.0111  166.8736 C.ar    1  UNL1        0.0000
     25 C         143.2222  142.2687  168.3277 C.ar    1  UNL1        0.0011
     26 C         142.0994  142.6855  169.2310 C.ar    1  UNL1        0.0140
     27 C         140.7133  142.8447  168.6801 C.ar    1  UNL1        0.0011
     28 C         140.4500  142.5872  167.2260 C.ar    1  UNL1        0.0000
     29 C         142.3627  142.9431  170.6850 C.2     1  UNL1        0.0729
     30 O         141.5975  142.1880  171.7310 O.co2   1  UNL1       -0.5446
     31 O         143.3913  143.9558  171.0929 O.co2   1  UNL1       -0.5446
     32 C         140.4850  138.5831  160.9657 C.3     1  UNL1        0.1055
     33 C         139.4332  138.3720  162.0140 C.3     1  UNL1        0.1486
     34 C         138.3716  138.7558  161.0262 C.3     1  UNL1        0.0368
     35 C         140.4947  137.9881  163.0018 C.3     1  UNL1        0.0368
     36 F         138.3813  138.1608  163.0623 F       1  UNL1       -0.2386
@<TRIPOS>UNITY_ATOM_ATTR
30 1
charge -1
@<TRIPOS>BOND
     1     2     1    1
     2     2     3    1
     3     3     4    1
     4     4     5    2
     5     5     6    1
     6     6     7    2
     7     7     8    1
     8     8     9    1
     9     9    10    2
    10    10    11    1
    11    11    12    2
    12     5    13    1
    13    13    15    1
    14    15    16   ar
    15    16    17    1
    16    16    18   ar
    17    18    19   ar
    18    19    23    1
    19    23    24   ar
    20    24    25   ar
    21    25    26   ar
    22    26    29    1
    23    29    30   ar
    24    29    31   ar
    25    26    27   ar
    26    27    28   ar
    27    19    20   ar
    28    20    21   ar
    29    21    22    1
    30    13    14    1
    31    14    32    1
    32    32    33    1
    33    33    34    1
    34    33    35    1
    35    33    36    1
    36    14     2    1
    37    12     4    1
    38    21    15   ar
    39    12     7    1
    40    28    23   ar
@<TRIPOS>MOLECULE
*****
 36 40 0 0 0
SMALL
GASTEIGER

@<TRIPOS>ATOM
      1 C         137.6682  140.6394  157.9222 C.3     1  UNL1        0.0177
      2 C         139.0392  140.9897  158.4199 C.3     1  UNL1        0.0626
      3 C         140.1727  141.1437  157.4496 C.3     1  UNL1        0.0436
      4 C         141.5436  141.4941  157.9473 C.2     1  UNL1       -0.0045
      5 C         141.7811  141.6905  159.4153 C.2     1  UNL1        0.0735
      6 N         143.2297  142.0281  159.6093 N.2     1  UNL1       -0.2523
      7 C         143.8874  142.0404  158.2613 C.2     1  UNL1        0.0627
      8 C         145.3006  142.3095  157.8365 C.3     1  UNL1        0.0717
      9 C         145.6717  142.2485  156.3845 C.2     1  UNL1       -0.0198
     10 C         144.6297  141.9184  155.3572 C.2     1  UNL1       -0.0042
     11 C         143.2165  141.6494  155.7820 C.2     1  UNL1        0.0006
     12 C         142.8454  141.7104  157.2341 C.2     1  UNL1        0.0111
     13 C         140.6476  141.5365  160.3856 C.3     1  UNL1        0.1250
     14 N         139.2767  141.1861  159.8879 N.3     1  UNL1       -0.2642
     15 C         140.8851  141.7329  161.8536 C.ar    1  UNL1        0.0528
     16 C         140.5872  143.0576  162.4909 C.ar    1  UNL1        0.1399
     17 F         140.0518  144.1860  161.6602 F       1  UNL1       -0.2044
     18 C         140.8247  143.2539  163.9590 C.ar    1  UNL1        0.0295
     19 C         141.3600  142.1255  164.7896 C.ar    1  UNL1        0.0044
     20 C         141.6579  140.8007  164.1523 C.ar    1  UNL1        0.0295
     21 C         141.4204  140.6044  162.6843 C.ar    1  UNL1        0.1399
     22 F         141.7183  139.2797  162.0469 F       1  UNL1       -0.2044
     23 C         141.5975  142.3219  166.2576 C.ar    1  UNL1        0.0001
     24 C         142.9709  142.1261  166.8280 C.ar    1  UNL1        0.0000
     25 C         143.2084  142.3225  168.2960 C.ar    1  UNL1        0.0011
     26 C         142.0724  142.7147  169.1937 C.ar    1  UNL1        0.0140
     27 C         140.6989  142.9105  168.6233 C.ar    1  UNL1        0.0011
     28 C         140.4615  142.7141  167.1552 C.ar    1  UNL1        0.0000
     29 C         142.3097  142.9111  170.6617 C.2     1  UNL1        0.0729
     30 O         141.5577  142.0825  171.6605 O.co2   1  UNL1       -0.5446
     31 O         143.2993  143.9362  171.1308 O.co2   1  UNL1       -0.5446
     32 C         138.1432  141.0321  160.8583 C.3     1  UNL1        0.1055
     33 C         138.1504  139.9044  161.8472 C.3     1  UNL1        0.1486
     34 C         137.6909  140.8441  162.9222 C.3     1  UNL1        0.0368
     35 C         138.6100  138.9647  160.7722 C.3     1  UNL1        0.0368
     36 F         138.1577  138.7766  162.8361 F       1  UNL1       -0.2386
@<TRIPOS>UNITY_ATOM_ATTR
30 1
charge -1
@<TRIPOS>BOND
     1     2     1    1
     2     2     3    1
     3     3     4    1
     4     4     5    2
     5     5     6    1
     6     6     7    2
     7     7     8    1
     8     8     9    1
     9     9    10    2
    10    10    11    1
    11    11    12    2
    12     5    13    1
    13    13    15    1
    14    15    16   ar
    15    16    17    1
    16    16    18   ar
    17    18    19   ar
    18    19    23    1
    19    23    24   ar
    20    24    25   ar
    21    25    26   ar
    22    26    29    1
    23    29    30   ar
    24    29    31   ar
    25    26    27   ar
    26    27    28   ar
    27    19    20   ar
    28    20    21   ar
    29    21    22    1
    30    13    14    1
    31    14    32    1
    32    32    33    1
    33    33    34    1
    34    33    35    1
    35    33    36    1
    36    14     2    1
    37    12     4    1
    38    21    15   ar
    39    12     7    1
    40    28    23   ar
@<TRIPOS>MOLECULE
*****
 36 40 0 0 0
SMALL
GASTEIGER

@<TRIPOS>ATOM
      1 C         139.9801  137.7424  157.6854 C.3     1  UNL1        0.0177
      2 C         140.8916  138.6989  158.3957 C.3     1  UNL1        0.0626
      3 C         142.0196  139.3517  157.6532 C.3     1  UNL1        0.0436
      4 C         142.9310  140.3081  158.3635 C.2     1  UNL1       -0.0045
      5 C         142.7144  140.6118  159.8163 C.2     1  UNL1        0.0735
      6 N         143.7673  141.5892  160.2475 N.2     1  UNL1       -0.2523
      7 C         144.6347  141.8896  159.0612 C.2     1  UNL1        0.0627
      8 C         145.8284  142.7818  158.8909 C.3     1  UNL1        0.0717
      9 C         146.5052  142.8823  157.5560 C.2     1  UNL1       -0.0198
     10 C         145.9884  142.0905  156.3916 C.2     1  UNL1       -0.0042
     11 C         144.7947  141.1982  156.5620 C.2     1  UNL1        0.0006
     12 C         144.1179  141.0978  157.8968 C.2     1  UNL1        0.0111
     13 C         141.5863  139.9590  160.5589 C.3     1  UNL1        0.1250
     14 N         140.6749  139.0026  159.8486 N.3     1  UNL1       -0.2642
     15 C         141.3696  140.2627  162.0117 C.ar    1  UNL1        0.0528
     16 C         140.6084  141.4903  162.4159 C.ar    1  UNL1        0.1399
     17 F         140.0639  142.4143  161.3673 F       1  UNL1       -0.2044
     18 C         140.3918  141.7940  163.8689 C.ar    1  UNL1        0.0295
     19 C         140.9363  140.8700  164.9175 C.ar    1  UNL1        0.0044
     20 C         141.6975  139.6423  164.5133 C.ar    1  UNL1        0.0295
     21 C         141.9142  139.3387  163.0605 C.ar    1  UNL1        0.1399
     22 F         142.6753  138.1110  162.6562 F       1  UNL1       -0.2044
     23 C         140.7196  141.1737  166.3704 C.ar    1  UNL1        0.0001
     24 C         140.8673  142.5792  166.8730 C.ar    1  UNL1        0.0000
     25 C         140.6506  142.8829  168.3258 C.ar    1  UNL1        0.0011
     26 C         140.2862  141.7810  169.2762 C.ar    1  UNL1        0.0140
     27 C         140.1385  140.3754  168.7736 C.ar    1  UNL1        0.0011
     28 C         140.3552  140.0718  167.3207 C.ar    1  UNL1        0.0000
     29 C         140.0695  142.0846  170.7290 C.2     1  UNL1        0.0729
     30 O         139.2254  143.2570  171.1325 O.co2   1  UNL1       -0.5446
     31 O         140.6970  141.2157  171.7785 O.co2   1  UNL1       -0.5446
     32 C         139.5468  138.3499  160.5912 C.3     1  UNL1        0.1055
     33 C         138.4201  139.1827  161.1267 C.3     1  UNL1        0.1486
     34 C         138.3667  139.9417  159.8340 C.3     1  UNL1        0.0368
     35 C         138.4735  138.4238  162.4194 C.3     1  UNL1        0.0368
     36 F         137.2934  140.0156  161.6622 F       1  UNL1       -0.2386
@<TRIPOS>UNITY_ATOM_ATTR
30 1
charge -1
@<TRIPOS>BOND
     1     2     1    1
     2     2     3    1
     3     3     4    1
     4     4     5    2
     5     5     6    1
     6     6     7    2
     7     7     8    1
     8     8     9    1
     9     9    10    2
    10    10    11    1
    11    11    12    2
    12     5    13    1
    13    13    15    1
    14    15    16   ar
    15    16    17    1
    16    16    18   ar
    17    18    19   ar
    18    19    23    1
    19    23    24   ar
    20    24    25   ar
    21    25    26   ar
    22    26    29    1
    23    29    30   ar
    24    29    31   ar
    25    26    27   ar
    26    27    28   ar
    27    19    20   ar
    28    20    21   ar
    29    21    22    1
    30    13    14    1
    31    14    32    1
    32    32    33    1
    33    33    34    1
    34    33    35    1
    35    33    36    1
    36    14     2    1
    37    12     4    1
    38    21    15   ar
    39    12     7    1
    40    28    23   ar
@<TRIPOS>MOLECULE
*****
 36 40 0 0 0
SMALL
GASTEIGER

@<TRIPOS>ATOM
      1 C         138.1025  136.8618  165.5677 C.3     1  UNL1        0.0177
      2 C         138.5947  138.2763  165.6525 C.3     1  UNL1        0.0626
      3 C         138.9054  138.8834  166.9885 C.3     1  UNL1        0.0436
      4 C         139.3976  140.2978  167.0734 C.2     1  UNL1       -0.0045
      5 C         139.5789  141.1051  165.8222 C.2     1  UNL1        0.0735
      6 N         140.0758  142.4645  166.2158 N.2     1  UNL1       -0.2523
      7 C         140.2016  142.4974  167.7102 C.2     1  UNL1        0.0627
      8 C         140.6436  143.5738  168.6568 C.3     1  UNL1        0.0717
      9 C         140.6665  143.3109  170.1333 C.2     1  UNL1       -0.0198
     10 C         140.2472  141.9718  170.6634 C.2     1  UNL1       -0.0042
     11 C         139.8052  140.8954  169.7168 C.2     1  UNL1        0.0006
     12 C         139.7824  141.1583  168.2402 C.2     1  UNL1        0.0111
     13 C         139.2682  140.4980  164.4862 C.3     1  UNL1        0.1250
     14 N         138.7761  139.0836  164.4014 N.3     1  UNL1       -0.2642
     15 C         139.4496  141.3053  163.2351 C.ar    1  UNL1        0.0528
     16 C         138.2796  142.0215  162.6285 C.ar    1  UNL1        0.1399
     17 F         136.9282  141.9305  163.2730 F       1  UNL1       -0.2044
     18 C         138.4610  142.8288  161.3773 C.ar    1  UNL1        0.0295
     19 C         139.8124  142.9198  160.7328 C.ar    1  UNL1        0.0044
     20 C         140.9825  142.2036  161.3394 C.ar    1  UNL1        0.0295
     21 C         140.8010  141.3963  162.5905 C.ar    1  UNL1        0.1399
     22 F         141.9710  140.6800  163.1972 F       1  UNL1       -0.2044
     23 C         139.9938  143.7271  159.4817 C.ar    1  UNL1        0.0001
     24 C         140.8008  144.9912  159.5150 C.ar    1  UNL1        0.0000
     25 C         140.9822  145.7985  158.2639 C.ar    1  UNL1        0.0011
     26 C         140.3565  145.3418  156.9793 C.ar    1  UNL1        0.0140
     27 C         139.5496  144.0777  156.9459 C.ar    1  UNL1        0.0011
     28 C         139.3682  143.2704  158.1971 C.ar    1  UNL1        0.0000
     29 C         140.5379  146.1490  155.7282 C.2     1  UNL1        0.0729
     30 O         139.6782  147.3531  155.4813 O.co2   1  UNL1       -0.5446
     31 O         141.5789  145.7520  154.7238 O.co2   1  UNL1       -0.5446
     32 C         138.4653  138.4764  163.0654 C.3     1  UNL1        0.1055
     33 C         139.5757  138.1673  162.1055 C.3     1  UNL1        0.1486
     34 C         140.3963  137.6144  163.2329 C.3     1  UNL1        0.0368
     35 C         138.7551  138.7201  160.9781 C.3     1  UNL1        0.0368
     36 F         140.6861  137.8581  161.1456 F       1  UNL1       -0.2386
@<TRIPOS>UNITY_ATOM_ATTR
30 1
charge -1
@<TRIPOS>BOND
     1     2     1    1
     2     2     3    1
     3     3     4    1
     4     4     5    2
     5     5     6    1
     6     6     7    2
     7     7     8    1
     8     8     9    1
     9     9    10    2
    10    10    11    1
    11    11    12    2
    12     5    13    1
    13    13    15    1
    14    15    16   ar
    15    16    17    1
    16    16    18   ar
    17    18    19   ar
    18    19    23    1
    19    23    24   ar
    20    24    25   ar
    21    25    26   ar
    22    26    29    1
    23    29    30   ar
    24    29    31   ar
    25    26    27   ar
    26    27    28   ar
    27    19    20   ar
    28    20    21   ar
    29    21    22    1
    30    13    14    1
    31    14    32    1
    32    32    33    1
    33    33    34    1
    34    33    35    1
    35    33    36    1
    36    14     2    1
    37    12     4    1
    38    21    15   ar
    39    12     7    1
    40    28    23   ar
@<TRIPOS>MOLECULE
*****
 36 40 0 0 0
SMALL
GASTEIGER

@<TRIPOS>ATOM
      1 C         144.9700  143.8505  165.7369 C.3     1  UNL1        0.0177
      2 C         143.8387  142.8723  165.6208 C.3     1  UNL1        0.0626
      3 C         142.9595  142.5984  166.8049 C.3     1  UNL1        0.0436
      4 C         141.8283  141.6202  166.6889 C.2     1  UNL1       -0.0045
      5 C         141.5763  140.9159  165.3887 C.2     1  UNL1        0.0735
      6 N         140.3946  140.0107  165.5735 N.2     1  UNL1       -0.2523
      7 C         139.9162  140.1557  166.9877 C.2     1  UNL1        0.0627
      8 C         138.7882  139.5104  167.7368 C.3     1  UNL1        0.0717
      9 C         138.5463  139.8599  169.1753 C.2     1  UNL1       -0.0198
     10 C         139.4324  140.8547  169.8647 C.2     1  UNL1       -0.0042
     11 C         140.5604  141.5000  169.1156 C.2     1  UNL1        0.0006
     12 C         140.8023  141.1505  167.6771 C.2     1  UNL1        0.0111
     13 C         142.4556  141.1897  164.2046 C.3     1  UNL1        0.1250
     14 N         143.5868  142.1679  164.3207 N.3     1  UNL1       -0.2642
     15 C         142.2036  140.4853  162.9045 C.ar    1  UNL1        0.0528
     16 C         142.9943  139.2613  162.5491 C.ar    1  UNL1        0.1399
     17 F         144.0371  138.7416  163.4939 F       1  UNL1       -0.2044
     18 C         142.7423  138.5569  161.2489 C.ar    1  UNL1        0.0295
     19 C         141.6995  139.0766  160.3042 C.ar    1  UNL1        0.0044
     20 C         140.9087  140.3007  160.6596 C.ar    1  UNL1        0.0295
     21 C         141.1608  141.0050  161.9597 C.ar    1  UNL1        0.1399
     22 F         140.3700  142.2291  162.3152 F       1  UNL1       -0.2044
     23 C         141.4475  138.3722  159.0041 C.ar    1  UNL1        0.0001
     24 C         142.5682  137.6577  158.3087 C.ar    1  UNL1        0.0000
     25 C         142.3162  136.9533  157.0085 C.ar    1  UNL1        0.0011
     26 C         140.9435  136.9634  156.4038 C.ar    1  UNL1        0.0140
     27 C         139.8228  137.6780  157.0992 C.ar    1  UNL1        0.0011
     28 C         140.0749  138.3824  158.3994 C.ar    1  UNL1        0.0000
     29 C         140.6915  136.2591  155.1037 C.2     1  UNL1        0.0729
     30 O         141.0612  134.8136  154.9498 O.co2   1  UNL1       -0.5446
     31 O         140.0696  137.0003  153.9574 O.co2   1  UNL1       -0.5446
     32 C         144.4660  142.4417  163.1366 C.3     1  UNL1        0.1055
     33 C         143.8974  143.1064  161.9181 C.3     1  UNL1        0.1486
     34 C         144.6239  142.1268  161.0448 C.3     1  UNL1        0.0368
     35 C         143.1710  144.0860  162.7914 C.3     1  UNL1        0.0368
     36 F         143.3289  143.7711  160.6995 F       1  UNL1       -0.2386
@<TRIPOS>UNITY_ATOM_ATTR
30 1
charge -1
@<TRIPOS>BOND
     1     2     1    1
     2     2     3    1
     3     3     4    1
     4     4     5    2
     5     5     6    1
     6     6     7    2
     7     7     8    1
     8     8     9    1
     9     9    10    2
    10    10    11    1
    11    11    12    2
    12     5    13    1
    13    13    15    1
    14    15    16   ar
    15    16    17    1
    16    16    18   ar
    17    18    19   ar
    18    19    23    1
    19    23    24   ar
    20    24    25   ar
    21    25    26   ar
    22    26    29    1
    23    29    30   ar
    24    29    31   ar
    25    26    27   ar
    26    27    28   ar
    27    19    20   ar
    28    20    21   ar
    29    21    22    1
    30    13    14    1
    31    14    32    1
    32    32    33    1
    33    33    34    1
    34    33    35    1
    35    33    36    1
    36    14     2    1
    37    12     4    1
    38    21    15   ar
    39    12     7    1
    40    28    23   ar
@<TRIPOS>MOLECULE
*****
 36 40 0 0 0
SMALL
GASTEIGER

@<TRIPOS>ATOM
      1 C         137.5752  138.1948  166.5920 C.3     1  UNL1        0.0177
      2 C         138.8225  139.0263  166.5380 C.3     1  UNL1        0.0626
      3 C         139.3779  139.6278  167.7950 C.3     1  UNL1        0.0436
      4 C         140.6251  140.4593  167.7410 C.2     1  UNL1       -0.0045
      5 C         141.3170  140.6893  166.4302 C.2     1  UNL1        0.0735
      6 N         142.5206  141.5472  166.6857 N.2     1  UNL1       -0.2523
      7 C         142.5726  141.8474  168.1544 C.2     1  UNL1        0.0627
      8 C         143.5353  142.6462  168.9821 C.3     1  UNL1        0.0717
      9 C         143.3265  142.7725  170.4621 C.2     1  UNL1       -0.0198
     10 C         142.1550  142.1001  171.1144 C.2     1  UNL1       -0.0042
     11 C         141.1923  141.3014  170.2866 C.2     1  UNL1        0.0006
     12 C         141.4011  141.1750  168.8067 C.2     1  UNL1        0.0111
     13 C         140.7617  140.0878  165.1732 C.3     1  UNL1        0.1250
     14 N         139.5144  139.2563  165.2272 N.3     1  UNL1       -0.2642
     15 C         141.4536  140.3178  163.8624 C.ar    1  UNL1        0.0528
     16 C         141.2483  141.6060  163.1219 C.ar    1  UNL1        0.1399
     17 F         140.3512  142.6642  163.6923 F       1  UNL1       -0.2044
     18 C         141.9403  141.8360  161.8110 C.ar    1  UNL1        0.0295
     19 C         142.8374  140.7778  161.2407 C.ar    1  UNL1        0.0044
     20 C         143.0426  139.4895  161.9812 C.ar    1  UNL1        0.0295
     21 C         142.3507  139.2596  163.2920 C.ar    1  UNL1        0.1399
     22 F         142.5559  137.9714  164.0326 F       1  UNL1       -0.2044
     23 C         143.5293  141.0078  159.9298 C.ar    1  UNL1        0.0001
     24 C         144.2988  142.2747  159.7000 C.ar    1  UNL1        0.0000
     25 C         144.9907  142.5048  158.3892 C.ar    1  UNL1        0.0011
     26 C         144.9131  141.4678  157.3080 C.ar    1  UNL1        0.0140
     27 C         144.1437  140.2008  157.5378 C.ar    1  UNL1        0.0011
     28 C         143.4517  139.9709  158.8487 C.ar    1  UNL1        0.0000
     29 C         145.6050  141.6977  155.9972 C.2     1  UNL1        0.0729
     30 O         147.0666  142.0338  155.9693 O.co2   1  UNL1       -0.5446
     31 O         144.8352  141.5917  154.7141 O.co2   1  UNL1       -0.5446
     32 C         138.9590  138.6549  163.9703 C.3     1  UNL1        0.1055
     33 C         138.4165  139.5429  162.8900 C.3     1  UNL1        0.1486
     34 C         139.0041  138.6361  161.8495 C.3     1  UNL1        0.0368
     35 C         137.8289  140.4496  163.9304 C.3     1  UNL1        0.0368
     36 F         137.8740  140.4309  161.8097 F       1  UNL1       -0.2386
@<TRIPOS>UNITY_ATOM_ATTR
30 1
charge -1
@<TRIPOS>BOND
     1     2     1    1
     2     2     3    1
     3     3     4    1
     4     4     5    2
     5     5     6    1
     6     6     7    2
     7     7     8    1
     8     8     9    1
     9     9    10    2
    10    10    11    1
    11    11    12    2
    12     5    13    1
    13    13    15    1
    14    15    16   ar
    15    16    17    1
    16    16    18   ar
    17    18    19   ar
    18    19    23    1
    19    23    24   ar
    20    24    25   ar
    21    25    26   ar
    22    26    29    1
    23    29    30   ar
    24    29    31   ar
    25    26    27   ar
    26    27    28   ar
    27    19    20   ar
    28    20    21   ar
    29    21    22    1
    30    13    14    1
    31    14    32    1
    32    32    33    1
    33    33    34    1
    34    33    35    1
    35    33    36    1
    36    14     2    1
    37    12     4    1
    38    21    15   ar
    39    12     7    1
    40    28    23   ar
@<TRIPOS>MOLECULE
*****
 36 40 0 0 0
SMALL
GASTEIGER

@<TRIPOS>ATOM
      1 C         137.6379  138.1372  166.5657 C.3     1  UNL1        0.0177
      2 C         138.8751  138.9839  166.5134 C.3     1  UNL1        0.0626
      3 C         139.4219  139.5914  167.7712 C.3     1  UNL1        0.0436
      4 C         140.6590  140.4381  167.7189 C.2     1  UNL1       -0.0045
      5 C         141.3492  140.6773  166.4088 C.2     1  UNL1        0.0735
      6 N         142.5420  141.5497  166.6659 N.2     1  UNL1       -0.2523
      7 C         142.5890  141.8496  168.1348 C.2     1  UNL1        0.0627
      8 C         143.5412  142.6595  168.9639 C.3     1  UNL1        0.0717
      9 C         143.3295  142.7824  170.4438 C.2     1  UNL1       -0.0198
     10 C         142.1657  142.0953  171.0946 C.2     1  UNL1       -0.0042
     11 C         141.2136  141.2854  170.2655 C.2     1  UNL1        0.0006
     12 C         141.4252  141.1626  168.7856 C.2     1  UNL1        0.0111
     13 C         140.8023  140.0699  165.1510 C.3     1  UNL1        0.1250
     14 N         139.5653  139.2232  165.2033 N.3     1  UNL1       -0.2642
     15 C         141.4925  140.3091  163.8409 C.ar    1  UNL1        0.0528
     16 C         142.4504  139.2892  163.3006 C.ar    1  UNL1        0.1399
     17 F         142.7182  138.0299  164.0704 F       1  UNL1       -0.2044
     18 C         143.1407  139.5285  161.9904 C.ar    1  UNL1        0.0295
     19 C         142.8729  140.7877  161.2207 C.ar    1  UNL1        0.0044
     20 C         141.9150  141.8077  161.7610 C.ar    1  UNL1        0.0295
     21 C         141.2248  141.5684  163.0710 C.ar    1  UNL1        0.1399
     22 F         140.2668  142.5884  163.6114 F       1  UNL1       -0.2044
     23 C         143.5631  141.0270  159.9106 C.ar    1  UNL1        0.0001
     24 C         143.4505  140.0163  158.8079 C.ar    1  UNL1        0.0000
     25 C         144.1407  140.2555  157.4978 C.ar    1  UNL1        0.0011
     26 C         144.9436  141.5055  157.2903 C.ar    1  UNL1        0.0140
     27 C         145.0563  142.5162  158.3930 C.ar    1  UNL1        0.0011
     28 C         144.3660  142.2769  159.7031 C.ar    1  UNL1        0.0000
     29 C         145.6338  141.7448  155.9803 C.2     1  UNL1        0.0729
     30 O         147.1312  141.8124  155.9228 O.co2   1  UNL1       -0.5446
     31 O         144.8266  141.9165  154.7277 O.co2   1  UNL1       -0.5446
     32 C         139.0184  138.6157  163.9455 C.3     1  UNL1        0.1055
     33 C         138.4374  139.4957  162.8787 C.3     1  UNL1        0.1486
     34 C         139.0480  138.6207  161.8244 C.3     1  UNL1        0.0368
     35 C         137.8269  140.3707  163.9330 C.3     1  UNL1        0.0368
     36 F         137.8565  140.3757  161.8119 F       1  UNL1       -0.2386
@<TRIPOS>UNITY_ATOM_ATTR
30 1
charge -1
@<TRIPOS>BOND
     1     2     1    1
     2     2     3    1
     3     3     4    1
     4     4     5    2
     5     5     6    1
     6     6     7    2
     7     7     8    1
     8     8     9    1
     9     9    10    2
    10    10    11    1
    11    11    12    2
    12     5    13    1
    13    13    15    1
    14    15    16   ar
    15    16    17    1
    16    16    18   ar
    17    18    19   ar
    18    19    23    1
    19    23    24   ar
    20    24    25   ar
    21    25    26   ar
    22    26    29    1
    23    29    30   ar
    24    29    31   ar
    25    26    27   ar
    26    27    28   ar
    27    19    20   ar
    28    20    21   ar
    29    21    22    1
    30    13    14    1
    31    14    32    1
    32    32    33    1
    33    33    34    1
    34    33    35    1
    35    33    36    1
    36    14     2    1
    37    12     4    1
    38    21    15   ar
    39    12     7    1
    40    28    23   ar
