@<TRIPOS>MOLECULE
*****
 35 39 0 0 0
SMALL
GASTEIGER

@<TRIPOS>ATOM
      1 C         139.9380  142.4844  160.7892 C.ar    1  UNL1        0.1233
      2 C         139.9623  142.2118  162.2640 C.ar    1  UNL1        0.1181
      3 N         138.6072  142.5384  162.8182 N.ar    1  UNL1       -0.2208
      4 N         137.7454  143.0129  161.6858 N.ar    1  UNL1       -0.0633
      5 N         138.5679  142.9796  160.4319 N.ar    1  UNL1       -0.1287
      6 C         143.1277  140.9140  159.0259 C.ar    1  UNL1        0.1547
      7 C         141.9830  141.1033  159.9765 C.ar    1  UNL1        0.0400
      8 C         141.0828  142.2952  159.8386 C.ar    1  UNL1        0.0241
      9 C         141.3274  143.2979  158.7501 C.ar    1  UNL1        0.0033
     10 C         142.4722  143.1086  157.7996 C.ar    1  UNL1        0.0207
     11 C         143.3724  141.9167  157.9374 C.ar    1  UNL1        0.0994
     12 N         144.5172  141.7274  156.9868 N.ar    1  UNL1       -0.2839
     13 C         144.4531  141.0396  155.6553 C.ar    1  UNL1        0.1826
     14 N         145.8234  141.0799  155.0464 N.ar    1  UNL1       -0.2280
     15 C         146.7343  141.7926  156.0016 C.ar    1  UNL1        0.0786
     16 C         148.1959  142.0584  155.7940 C.3     1  UNL1        0.0538
     17 C         145.9270  142.1928  157.2008 C.ar    1  UNL1        0.0963
     18 C         144.0956  138.9799  160.4655 C.3     1  UNL1        0.2525
     19 O         144.0279  139.7220  159.1638 O.3     1  UNL1       -0.4700
     20 C         138.1876  142.4126  164.2528 C.3     1  UNL1        0.2145
     21 C         139.1467  142.7710  165.3490 C.2     1  UNL1        0.2580
     22 O         139.4657  144.2106  165.6254 O.2     1  UNL1       -0.2720
     23 N         139.7869  141.6903  166.1687 N.am    1  UNL1       -0.2357
     24 C         140.7460  142.0487  167.2649 C.ar    1  UNL1        0.0581
     25 C         142.2235  141.9217  167.0398 C.ar    1  UNL1        0.0152
     26 C         143.1826  142.2802  168.1360 C.ar    1  UNL1        0.0013
     27 C         142.6642  142.7657  169.4572 C.ar    1  UNL1        0.0001
     28 C         141.1866  142.8927  169.6822 C.ar    1  UNL1        0.0013
     29 C         140.2275  142.5342  168.5861 C.ar    1  UNL1        0.0152
     30 C         139.4679  140.2508  165.8922 C.ar    1  UNL1        0.0581
     31 C         140.2591  139.4903  164.8696 C.ar    1  UNL1        0.0152
     32 C         139.9401  138.0510  164.5931 C.ar    1  UNL1        0.0013
     33 C         138.8299  137.3721  165.3391 C.ar    1  UNL1        0.0001
     34 C         138.0387  138.1326  166.3616 C.ar    1  UNL1        0.0013
     35 C         138.3577  139.5720  166.6381 C.ar    1  UNL1        0.0152
@<TRIPOS>BOND
     1    18    19    1
     2    19     6    1
     3     6     7   ar
     4     7     8   ar
     5     8     1    1
     6     1     2   ar
     7     2     3   ar
     8     3    20    1
     9    20    21    1
    10    21    22    2
    11    21    23   am
    12    23    24    1
    13    24    25   ar
    14    25    26   ar
    15    26    27   ar
    16    27    28   ar
    17    28    29   ar
    18    23    30    1
    19    30    31   ar
    20    31    32   ar
    21    32    33   ar
    22    33    34   ar
    23    34    35   ar
    24     3     4   ar
    25     4     5   ar
    26     8     9   ar
    27     9    10   ar
    28    10    11   ar
    29    11    12    1
    30    12    13   ar
    31    13    14   ar
    32    14    15   ar
    33    15    16    1
    34    15    17   ar
    35    11     6   ar
    36    17    12   ar
    37     5     1   ar
    38    29    24   ar
    39    35    30   ar
@<TRIPOS>MOLECULE
*****
 35 39 0 0 0
SMALL
GASTEIGER

@<TRIPOS>ATOM
      1 C         140.0808  138.4990  162.4439 C.ar    1  UNL1        0.1233
      2 C         139.8103  139.7860  163.1653 C.ar    1  UNL1        0.1181
      3 N         139.0562  139.4638  164.4212 N.ar    1  UNL1       -0.2208
      4 N         138.8606  137.9776  164.4761 N.ar    1  UNL1       -0.0633
      5 N         139.4939  137.3813  163.2541 N.ar    1  UNL1       -0.1287
      6 C         140.8331  138.5005  158.5472 C.ar    1  UNL1        0.1547
      7 C         140.1038  138.6446  159.8500 C.ar    1  UNL1        0.0400
      8 C         140.8103  138.3549  161.1411 C.ar    1  UNL1        0.0241
      9 C         142.2461  137.9212  161.1294 C.ar    1  UNL1        0.0033
     10 C         142.9755  137.7771  159.8267 C.ar    1  UNL1        0.0207
     11 C         142.2690  138.0668  158.5356 C.ar    1  UNL1        0.0994
     12 N         142.9984  137.9227  157.2328 N.ar    1  UNL1       -0.2839
     13 C         143.2691  136.6357  156.5115 C.ar    1  UNL1        0.1826
     14 N         144.0232  136.9579  155.2555 N.ar    1  UNL1       -0.2280
     15 C         144.2185  138.4442  155.2005 C.ar    1  UNL1        0.0786
     16 C         144.9234  139.2012  154.1142 C.3     1  UNL1        0.0538
     17 C         143.5851  139.0404  156.4225 C.ar    1  UNL1        0.0963
     18 C         139.6070  137.6615  156.4159 C.3     1  UNL1        0.2525
     19 O         140.1266  138.7902  157.2561 O.3     1  UNL1       -0.4700
     20 C         138.5810  140.4539  165.4429 C.3     1  UNL1        0.2145
     21 C         139.4308  140.7631  166.6397 C.2     1  UNL1        0.2580
     22 O         139.4622  139.8157  167.8023 O.2     1  UNL1       -0.2720
     23 N         140.2492  142.0196  166.6739 N.am    1  UNL1       -0.2357
     24 C         141.0991  142.3289  167.8706 C.ar    1  UNL1        0.0581
     25 C         142.5106  141.8258  167.9383 C.ar    1  UNL1        0.0152
     26 C         143.3604  142.1350  169.1350 C.ar    1  UNL1        0.0013
     27 C         142.7987  142.9473  170.2641 C.ar    1  UNL1        0.0001
     28 C         141.3872  143.4503  170.1964 C.ar    1  UNL1        0.0013
     29 C         140.5374  143.1411  168.9997 C.ar    1  UNL1        0.0152
     30 C         140.2178  142.9670  165.5113 C.ar    1  UNL1        0.0581
     31 C         141.3128  142.9334  164.4866 C.ar    1  UNL1        0.0152
     32 C         141.2814  143.8807  163.3241 C.ar    1  UNL1        0.0013
     33 C         140.1551  144.8617  163.1862 C.ar    1  UNL1        0.0001
     34 C         139.0602  144.8953  164.2108 C.ar    1  UNL1        0.0013
     35 C         139.0916  143.9480  165.3734 C.ar    1  UNL1        0.0152
@<TRIPOS>BOND
     1    18    19    1
     2    19     6    1
     3     6     7   ar
     4     7     8   ar
     5     8     1    1
     6     1     2   ar
     7     2     3   ar
     8     3    20    1
     9    20    21    1
    10    21    22    2
    11    21    23   am
    12    23    24    1
    13    24    25   ar
    14    25    26   ar
    15    26    27   ar
    16    27    28   ar
    17    28    29   ar
    18    23    30    1
    19    30    31   ar
    20    31    32   ar
    21    32    33   ar
    22    33    34   ar
    23    34    35   ar
    24     3     4   ar
    25     4     5   ar
    26     8     9   ar
    27     9    10   ar
    28    10    11   ar
    29    11    12    1
    30    12    13   ar
    31    13    14   ar
    32    14    15   ar
    33    15    16    1
    34    15    17   ar
    35    11     6   ar
    36    17    12   ar
    37     5     1   ar
    38    29    24   ar
    39    35    30   ar
@<TRIPOS>MOLECULE
*****
 35 39 0 0 0
SMALL
GASTEIGER

@<TRIPOS>ATOM
      1 C         139.8844  142.4779  160.8558 C.ar    1  UNL1        0.1233
      2 C         139.9303  142.2288  162.3342 C.ar    1  UNL1        0.1181
      3 N         138.5812  142.5575  162.9017 N.ar    1  UNL1       -0.2208
      4 N         137.7016  143.0099  161.7740 N.ar    1  UNL1       -0.0633
      5 N         138.5071  142.9607  160.5095 N.ar    1  UNL1       -0.1287
      6 C         142.4796  143.1486  157.9291 C.ar    1  UNL1        0.1547
      7 C         141.3470  143.3472  158.8922 C.ar    1  UNL1        0.0400
      8 C         141.0171  142.2793  159.8926 C.ar    1  UNL1        0.0241
      9 C         141.8199  141.0127  159.9298 C.ar    1  UNL1        0.0033
     10 C         142.9525  140.8141  158.9667 C.ar    1  UNL1        0.0207
     11 C         143.2824  141.8820  157.9663 C.ar    1  UNL1        0.0994
     12 N         144.4151  141.6834  157.0032 N.ar    1  UNL1       -0.2839
     13 C         144.3505  140.9251  155.7105 C.ar    1  UNL1        0.1826
     14 N         145.7067  140.9812  155.0721 N.ar    1  UNL1       -0.2280
     15 C         146.6094  141.7741  155.9701 C.ar    1  UNL1        0.0786
     16 C         148.0563  142.0795  155.7188 C.3     1  UNL1        0.0538
     17 C         145.8111  142.2081  157.1636 C.ar    1  UNL1        0.0963
     18 C         142.1136  145.5438  156.9916 C.3     1  UNL1        0.2525
     19 O         142.8095  144.2165  156.9287 O.3     1  UNL1       -0.4700
     20 C         138.1819  142.4524  164.3438 C.3     1  UNL1        0.2145
     21 C         139.1699  142.7863  165.4219 C.2     1  UNL1        0.2580
     22 O         139.5101  144.2187  165.7099 O.2     1  UNL1       -0.2720
     23 N         139.8176  141.6882  166.2120 N.am    1  UNL1       -0.2357
     24 C         140.8056  142.0222  167.2901 C.ar    1  UNL1        0.0581
     25 C         140.3223  142.4690  168.6380 C.ar    1  UNL1        0.0152
     26 C         141.3103  142.8030  169.7161 C.ar    1  UNL1        0.0013
     27 C         142.7816  142.6902  169.4464 C.ar    1  UNL1        0.0001
     28 C         143.2648  142.2433  168.0985 C.ar    1  UNL1        0.0013
     29 C         142.2769  141.9093  167.0204 C.ar    1  UNL1        0.0152
     30 C         139.4774  140.2559  165.9240 C.ar    1  UNL1        0.0581
     31 C         138.3554  139.5884  166.6627 C.ar    1  UNL1        0.0152
     32 C         138.0152  138.1562  166.3747 C.ar    1  UNL1        0.0013
     33 C         138.7969  137.3915  165.3480 C.ar    1  UNL1        0.0001
     34 C         139.9187  138.0590  164.6093 C.ar    1  UNL1        0.0013
     35 C         140.2590  139.4912  164.8973 C.ar    1  UNL1        0.0152
@<TRIPOS>BOND
     1    18    19    1
     2    19     6    1
     3     6     7   ar
     4     7     8   ar
     5     8     1    1
     6     1     2   ar
     7     2     3   ar
     8     3    20    1
     9    20    21    1
    10    21    22    2
    11    21    23   am
    12    23    24    1
    13    24    25   ar
    14    25    26   ar
    15    26    27   ar
    16    27    28   ar
    17    28    29   ar
    18    23    30    1
    19    30    31   ar
    20    31    32   ar
    21    32    33   ar
    22    33    34   ar
    23    34    35   ar
    24     3     4   ar
    25     4     5   ar
    26     8     9   ar
    27     9    10   ar
    28    10    11   ar
    29    11    12    1
    30    12    13   ar
    31    13    14   ar
    32    14    15   ar
    33    15    16    1
    34    15    17   ar
    35    11     6   ar
    36    17    12   ar
    37     5     1   ar
    38    29    24   ar
    39    35    30   ar
@<TRIPOS>MOLECULE
*****
 35 39 0 0 0
SMALL
GASTEIGER

@<TRIPOS>ATOM
      1 C         143.6520  140.8605  161.6362 C.ar    1  UNL1        0.1233
      2 C         142.6537  141.5849  162.4898 C.ar    1  UNL1        0.1181
      3 N         143.4088  142.4733  163.4335 N.ar    1  UNL1       -0.2208
      4 N         144.8739  142.2979  163.1631 N.ar    1  UNL1       -0.0633
      5 N         145.0241  141.3012  162.0523 N.ar    1  UNL1       -0.1287
      6 C         143.0792  139.2926  158.0357 C.ar    1  UNL1        0.1547
      7 C         143.3971  140.2836  159.1158 C.ar    1  UNL1        0.0400
      8 C         143.3341  139.8693  160.5561 C.ar    1  UNL1        0.0241
      9 C         142.9531  138.4640  160.9162 C.ar    1  UNL1        0.0033
     10 C         142.6351  137.4729  159.8361 C.ar    1  UNL1        0.0207
     11 C         142.6982  137.8872  158.3958 C.ar    1  UNL1        0.0994
     12 N         142.3802  136.8961  157.3157 N.ar    1  UNL1       -0.2839
     13 C         141.1428  136.8825  156.4680 C.ar    1  UNL1        0.1826
     14 N         141.2417  135.7226  155.5220 N.ar    1  UNL1       -0.2280
     15 C         142.5403  135.0192  155.7852 C.ar    1  UNL1        0.0786
     16 C         143.0463  133.8040  155.0660 C.3     1  UNL1        0.0538
     17 C         143.2439  135.7445  156.8937 C.ar    1  UNL1        0.0963
     18 C         144.4563  139.7081  155.8722 C.3     1  UNL1        0.2525
     19 O         143.1422  139.7069  156.5954 O.3     1  UNL1       -0.4700
     20 C         142.8050  143.3781  164.4663 C.3     1  UNL1        0.2145
     21 C         142.3928  142.8258  165.7985 C.2     1  UNL1        0.2580
     22 O         143.4336  142.4839  166.8233 O.2     1  UNL1       -0.2720
     23 N         140.9399  142.6153  166.1062 N.am    1  UNL1       -0.2357
     24 C         140.5277  142.0630  167.4385 C.ar    1  UNL1        0.0581
     25 C         140.1452  140.6181  167.5655 C.ar    1  UNL1        0.0152
     26 C         139.7329  140.0658  168.8978 C.ar    1  UNL1        0.0013
     27 C         139.7032  140.9583  170.1030 C.ar    1  UNL1        0.0001
     28 C         140.0857  142.4031  169.9760 C.ar    1  UNL1        0.0013
     29 C         140.4980  142.9554  168.6437 C.ar    1  UNL1        0.0152
     30 C         139.8991  142.9572  165.0814 C.ar    1  UNL1        0.0581
     31 C         139.3552  144.3528  165.0016 C.ar    1  UNL1        0.0152
     32 C         138.3145  144.6948  163.9770 C.ar    1  UNL1        0.0013
     33 C         137.8177  143.6410  163.0321 C.ar    1  UNL1        0.0001
     34 C         138.3616  142.2455  163.1119 C.ar    1  UNL1        0.0013
     35 C         139.4023  141.9035  164.1366 C.ar    1  UNL1        0.0152
@<TRIPOS>BOND
     1    18    19    1
     2    19     6    1
     3     6     7   ar
     4     7     8   ar
     5     8     1    1
     6     1     2   ar
     7     2     3   ar
     8     3    20    1
     9    20    21    1
    10    21    22    2
    11    21    23   am
    12    23    24    1
    13    24    25   ar
    14    25    26   ar
    15    26    27   ar
    16    27    28   ar
    17    28    29   ar
    18    23    30    1
    19    30    31   ar
    20    31    32   ar
    21    32    33   ar
    22    33    34   ar
    23    34    35   ar
    24     3     4   ar
    25     4     5   ar
    26     8     9   ar
    27     9    10   ar
    28    10    11   ar
    29    11    12    1
    30    12    13   ar
    31    13    14   ar
    32    14    15   ar
    33    15    16    1
    34    15    17   ar
    35    11     6   ar
    36    17    12   ar
    37     5     1   ar
    38    29    24   ar
    39    35    30   ar
@<TRIPOS>MOLECULE
*****
 35 39 0 0 0
SMALL
GASTEIGER

@<TRIPOS>ATOM
      1 C         139.5660  141.1843  160.8697 C.ar    1  UNL1        0.1233
      2 C         139.4093  140.9783  162.3472 C.ar    1  UNL1        0.1181
      3 N         138.5631  142.0945  162.8837 N.ar    1  UNL1       -0.2208
      4 N         138.1968  142.9905  161.7378 N.ar    1  UNL1       -0.0633
      5 N         138.8166  142.4280  160.4931 N.ar    1  UNL1       -0.1287
      6 C         142.3889  138.7838  159.4489 C.ar    1  UNL1        0.1547
      7 C         141.6182  139.6664  160.3853 C.ar    1  UNL1        0.0400
      8 C         140.3368  140.3017  159.9332 C.ar    1  UNL1        0.0241
      9 C         139.8262  140.0545  158.5446 C.ar    1  UNL1        0.0033
     10 C         140.5969  139.1719  157.6082 C.ar    1  UNL1        0.0207
     11 C         141.8783  138.5366  158.0603 C.ar    1  UNL1        0.0994
     12 N         142.6491  137.6540  157.1238 N.ar    1  UNL1       -0.2839
     13 C         143.5553  138.1164  156.0216 C.ar    1  UNL1        0.1826
     14 N         144.1152  136.9022  155.3417 N.ar    1  UNL1       -0.2280
     15 C         143.5550  135.6893  156.0238 C.ar    1  UNL1        0.0786
     16 C         143.8493  134.2624  155.6671 C.3     1  UNL1        0.0538
     17 C         142.6489  136.1539  157.1252 C.ar    1  UNL1        0.0963
     18 C         143.9061  137.8914  161.3598 C.3     1  UNL1        0.2525
     19 O         143.6703  138.1485  159.9010 O.3     1  UNL1       -0.4700
     20 C         138.1548  142.2819  164.3149 C.3     1  UNL1        0.2145
     21 C         139.1836  142.6329  165.3485 C.2     1  UNL1        0.2580
     22 O         139.6139  144.0591  165.5243 O.2     1  UNL1       -0.2720
     23 N         139.7822  141.5578  166.2062 N.am    1  UNL1       -0.2357
     24 C         140.8110  141.9087  167.2398 C.ar    1  UNL1        0.0581
     25 C         142.2614  141.9730  166.8627 C.ar    1  UNL1        0.0152
     26 C         143.2902  142.3239  167.8963 C.ar    1  UNL1        0.0013
     27 C         142.8686  142.6105  169.3071 C.ar    1  UNL1        0.0001
     28 C         141.4182  142.5462  169.6842 C.ar    1  UNL1        0.0013
     29 C         140.3894  142.1953  168.6506 C.ar    1  UNL1        0.0152
     30 C         139.3518  140.1316  166.0303 C.ar    1  UNL1        0.0581
     31 C         138.1967  139.5937  166.8217 C.ar    1  UNL1        0.0152
     32 C         137.7664  138.1675  166.6458 C.ar    1  UNL1        0.0013
     33 C         138.4912  137.2793  165.6785 C.ar    1  UNL1        0.0001
     34 C         139.6462  137.8172  164.8871 C.ar    1  UNL1        0.0013
     35 C         140.0765  139.2433  165.0630 C.ar    1  UNL1        0.0152
@<TRIPOS>BOND
     1    18    19    1
     2    19     6    1
     3     6     7   ar
     4     7     8   ar
     5     8     1    1
     6     1     2   ar
     7     2     3   ar
     8     3    20    1
     9    20    21    1
    10    21    22    2
    11    21    23   am
    12    23    24    1
    13    24    25   ar
    14    25    26   ar
    15    26    27   ar
    16    27    28   ar
    17    28    29   ar
    18    23    30    1
    19    30    31   ar
    20    31    32   ar
    21    32    33   ar
    22    33    34   ar
    23    34    35   ar
    24     3     4   ar
    25     4     5   ar
    26     8     9   ar
    27     9    10   ar
    28    10    11   ar
    29    11    12    1
    30    12    13   ar
    31    13    14   ar
    32    14    15   ar
    33    15    16    1
    34    15    17   ar
    35    11     6   ar
    36    17    12   ar
    37     5     1   ar
    38    29    24   ar
    39    35    30   ar
@<TRIPOS>MOLECULE
*****
 35 39 0 0 0
SMALL
GASTEIGER

@<TRIPOS>ATOM
      1 C         141.3017  138.8510  160.9729 C.ar    1  UNL1        0.1233
      2 C         141.9596  140.0912  161.5010 C.ar    1  UNL1        0.1181
      3 N         141.6244  140.2092  162.9583 N.ar    1  UNL1       -0.2208
      4 N         140.7593  139.0418  163.3309 N.ar    1  UNL1       -0.0633
      5 N         140.5598  138.2024  162.1039 N.ar    1  UNL1       -0.1287
      6 C         140.2292  137.8981  157.2727 C.ar    1  UNL1        0.1547
      7 C         140.1579  138.4014  158.6839 C.ar    1  UNL1        0.0400
      8 C         141.3730  138.3476  159.5617 C.ar    1  UNL1        0.0241
      9 C         142.6595  137.7905  159.0282 C.ar    1  UNL1        0.0033
     10 C         142.7308  137.2872  157.6170 C.ar    1  UNL1        0.0207
     11 C         141.5156  137.3410  156.7393 C.ar    1  UNL1        0.0994
     12 N         141.5870  136.8376  155.3280 N.ar    1  UNL1       -0.2839
     13 C         141.9196  137.6560  154.1158 C.ar    1  UNL1        0.1826
     14 N         141.8764  136.7517  152.9198 N.ar    1  UNL1       -0.2280
     15 C         141.5171  135.3743  153.3929 C.ar    1  UNL1        0.0786
     16 C         141.3636  134.1575  152.5293 C.3     1  UNL1        0.0538
     17 C         141.3382  135.4274  154.8813 C.ar    1  UNL1        0.0963
     18 C         138.7410  139.1718  155.5660 C.3     1  UNL1        0.2525
     19 O         139.0140  137.9519  156.3949 O.3     1  UNL1       -0.4700
     20 C         142.0752  141.3026  163.8810 C.3     1  UNL1        0.2145
     21 C         141.7950  141.2062  165.3514 C.2     1  UNL1        0.2580
     22 O         142.7479  140.4751  166.2502 O.2     1  UNL1       -0.2720
     23 N         140.5620  141.8407  165.9232 N.am    1  UNL1       -0.2357
     24 C         140.2817  141.7443  167.3936 C.ar    1  UNL1        0.0581
     25 C         139.6986  140.4860  167.9650 C.ar    1  UNL1        0.0152
     26 C         139.4183  140.3896  169.4354 C.ar    1  UNL1        0.0013
     27 C         139.7212  141.5515  170.3344 C.ar    1  UNL1        0.0001
     28 C         140.3044  142.8098  169.7630 C.ar    1  UNL1        0.0013
     29 C         140.5846  142.9062  168.2926 C.ar    1  UNL1        0.0152
     30 C         139.6091  142.5717  165.0243 C.ar    1  UNL1        0.0581
     31 C         139.7768  144.0442  164.7925 C.ar    1  UNL1        0.0152
     32 C         138.8240  144.7752  163.8938 C.ar    1  UNL1        0.0013
     33 C         137.7036  144.0337  163.2268 C.ar    1  UNL1        0.0001
     34 C         137.5359  142.5614  163.4586 C.ar    1  UNL1        0.0013
     35 C         138.4887  141.8303  164.3574 C.ar    1  UNL1        0.0152
@<TRIPOS>BOND
     1    18    19    1
     2    19     6    1
     3     6     7   ar
     4     7     8   ar
     5     8     1    1
     6     1     2   ar
     7     2     3   ar
     8     3    20    1
     9    20    21    1
    10    21    22    2
    11    21    23   am
    12    23    24    1
    13    24    25   ar
    14    25    26   ar
    15    26    27   ar
    16    27    28   ar
    17    28    29   ar
    18    23    30    1
    19    30    31   ar
    20    31    32   ar
    21    32    33   ar
    22    33    34   ar
    23    34    35   ar
    24     3     4   ar
    25     4     5   ar
    26     8     9   ar
    27     9    10   ar
    28    10    11   ar
    29    11    12    1
    30    12    13   ar
    31    13    14   ar
    32    14    15   ar
    33    15    16    1
    34    15    17   ar
    35    11     6   ar
    36    17    12   ar
    37     5     1   ar
    38    29    24   ar
    39    35    30   ar
@<TRIPOS>MOLECULE
*****
 35 39 0 0 0
SMALL
GASTEIGER

@<TRIPOS>ATOM
      1 C         142.6147  140.0897  161.4981 C.ar    1  UNL1        0.1233
      2 C         141.6173  140.8497  162.3211 C.ar    1  UNL1        0.1181
      3 N         141.2114  139.9819  163.4753 N.ar    1  UNL1       -0.2208
      4 N         141.9580  138.6855  163.3656 N.ar    1  UNL1       -0.0633
      5 N         142.8253  138.7521  162.1436 N.ar    1  UNL1       -0.1287
      6 C         144.0171  140.1915  157.7869 C.ar    1  UNL1        0.1547
      7 C         143.3478  139.7004  159.0361 C.ar    1  UNL1        0.0400
      8 C         143.2841  140.5809  160.2488 C.ar    1  UNL1        0.0241
      9 C         143.8897  141.9527  160.2121 C.ar    1  UNL1        0.0033
     10 C         144.5591  142.4439  158.9629 C.ar    1  UNL1        0.0207
     11 C         144.6228  141.5633  157.7503 C.ar    1  UNL1        0.0994
     12 N         145.2921  142.0546  156.5010 N.ar    1  UNL1       -0.2839
     13 C         144.6041  142.6428  155.3049 C.ar    1  UNL1        0.1826
     14 N         145.6538  142.9956  154.2932 N.ar    1  UNL1       -0.2280
     15 C         146.9907  142.6254  154.8640 C.ar    1  UNL1        0.0786
     16 C         148.3180  142.8053  154.1888 C.3     1  UNL1        0.0538
     17 C         146.7672  142.0438  156.2284 C.ar    1  UNL1        0.0963
     18 C         143.1450  138.1460  156.4433 C.3     1  UNL1        0.2525
     19 O         144.0808  139.3110  156.5742 O.3     1  UNL1       -0.4700
     20 C         140.2310  140.3464  164.5505 C.3     1  UNL1        0.2145
     21 C         140.7178  140.6619  165.9338 C.2     1  UNL1        0.2580
     22 O         140.8185  139.5724  166.9601 O.2     1  UNL1       -0.2720
     23 N         141.1039  142.0665  166.2910 N.am    1  UNL1       -0.2357
     24 C         141.5908  142.3820  167.6742 C.ar    1  UNL1        0.0581
     25 C         140.6519  142.9747  168.6827 C.ar    1  UNL1        0.0152
     26 C         141.1387  143.2902  170.0660 C.ar    1  UNL1        0.0013
     27 C         142.5644  143.0128  170.4408 C.ar    1  UNL1        0.0001
     28 C         143.5033  142.4201  169.4323 C.ar    1  UNL1        0.0013
     29 C         143.0165  142.1047  168.0490 C.ar    1  UNL1        0.0152
     30 C         141.0032  143.1559  165.2647 C.ar    1  UNL1        0.0581
     31 C         139.6798  143.8056  164.9879 C.ar    1  UNL1        0.0152
     32 C         139.5790  144.8949  163.9617 C.ar    1  UNL1        0.0013
     33 C         140.8017  145.3346  163.2122 C.ar    1  UNL1        0.0001
     34 C         142.1250  144.6850  163.4889 C.ar    1  UNL1        0.0013
     35 C         142.2258  143.5957  164.5152 C.ar    1  UNL1        0.0152
@<TRIPOS>BOND
     1    18    19    1
     2    19     6    1
     3     6     7   ar
     4     7     8   ar
     5     8     1    1
     6     1     2   ar
     7     2     3   ar
     8     3    20    1
     9    20    21    1
    10    21    22    2
    11    21    23   am
    12    23    24    1
    13    24    25   ar
    14    25    26   ar
    15    26    27   ar
    16    27    28   ar
    17    28    29   ar
    18    23    30    1
    19    30    31   ar
    20    31    32   ar
    21    32    33   ar
    22    33    34   ar
    23    34    35   ar
    24     3     4   ar
    25     4     5   ar
    26     8     9   ar
    27     9    10   ar
    28    10    11   ar
    29    11    12    1
    30    12    13   ar
    31    13    14   ar
    32    14    15   ar
    33    15    16    1
    34    15    17   ar
    35    11     6   ar
    36    17    12   ar
    37     5     1   ar
    38    29    24   ar
    39    35    30   ar
@<TRIPOS>MOLECULE
*****
 35 39 0 0 0
SMALL
GASTEIGER

@<TRIPOS>ATOM
      1 C         138.4044  141.5695  160.5290 C.ar    1  UNL1        0.1233
      2 C         138.3243  141.0746  161.9427 C.ar    1  UNL1        0.1181
      3 N         137.9975  142.2429  162.8250 N.ar    1  UNL1       -0.2208
      4 N         137.8757  143.4599  161.9565 N.ar    1  UNL1       -0.0633
      5 N         138.1272  143.0437  160.5375 N.ar    1  UNL1       -0.1287
      6 C         138.5959  140.3776  156.7484 C.ar    1  UNL1        0.1547
      7 C         138.2919  141.2105  157.9583 C.ar    1  UNL1        0.0400
      8 C         138.7084  140.7365  159.3191 C.ar    1  UNL1        0.0241
      9 C         139.4289  139.4296  159.4701 C.ar    1  UNL1        0.0033
     10 C         139.7328  138.5967  158.2602 C.ar    1  UNL1        0.0207
     11 C         139.3163  139.0707  156.8994 C.ar    1  UNL1        0.0994
     12 N         139.6203  138.2377  155.6895 N.ar    1  UNL1       -0.2839
     13 C         138.6217  137.4742  154.8711 C.ar    1  UNL1        0.1826
     14 N         139.3605  136.7866  153.7614 N.ar    1  UNL1       -0.2280
     15 C         140.8158  137.1251  153.8940 C.ar    1  UNL1        0.0786
     16 C         141.9172  136.6502  152.9932 C.3     1  UNL1        0.0538
     17 C         140.9764  138.0219  155.0856 C.ar    1  UNL1        0.0963
     18 C         138.9494  141.9432  154.7055 C.3     1  UNL1        0.2525
     19 O         138.1794  140.8516  155.3876 O.3     1  UNL1       -0.4700
     20 C         137.8232  142.2015  164.3142 C.3     1  UNL1        0.2145
     21 C         138.9720  142.5492  165.2138 C.2     1  UNL1        0.2580
     22 O         139.4114  143.9769  165.3514 O.2     1  UNL1       -0.2720
     23 N         139.6815  141.4695  165.9758 N.am    1  UNL1       -0.2357
     24 C         140.8303  141.8172  166.8754 C.ar    1  UNL1        0.0581
     25 C         142.2135  141.9460  166.3096 C.ar    1  UNL1        0.0152
     26 C         143.3624  142.2937  167.2092 C.ar    1  UNL1        0.0013
     27 C         143.1280  142.5126  168.6745 C.ar    1  UNL1        0.0001
     28 C         141.7448  142.3839  169.2403 C.ar    1  UNL1        0.0013
     29 C         140.5959  142.0362  168.3407 C.ar    1  UNL1        0.0152
     30 C         139.2420  140.0419  165.8382 C.ar    1  UNL1        0.0581
     31 C         138.2373  139.4709  166.7947 C.ar    1  UNL1        0.0152
     32 C         137.7979  138.0434  166.6571 C.ar    1  UNL1        0.0013
     33 C         138.3630  137.1868  165.5631 C.ar    1  UNL1        0.0001
     34 C         139.3676  137.7577  164.6068 C.ar    1  UNL1        0.0013
     35 C         139.8071  139.1852  164.7443 C.ar    1  UNL1        0.0152
@<TRIPOS>BOND
     1    18    19    1
     2    19     6    1
     3     6     7   ar
     4     7     8   ar
     5     8     1    1
     6     1     2   ar
     7     2     3   ar
     8     3    20    1
     9    20    21    1
    10    21    22    2
    11    21    23   am
    12    23    24    1
    13    24    25   ar
    14    25    26   ar
    15    26    27   ar
    16    27    28   ar
    17    28    29   ar
    18    23    30    1
    19    30    31   ar
    20    31    32   ar
    21    32    33   ar
    22    33    34   ar
    23    34    35   ar
    24     3     4   ar
    25     4     5   ar
    26     8     9   ar
    27     9    10   ar
    28    10    11   ar
    29    11    12    1
    30    12    13   ar
    31    13    14   ar
    32    14    15   ar
    33    15    16    1
    34    15    17   ar
    35    11     6   ar
    36    17    12   ar
    37     5     1   ar
    38    29    24   ar
    39    35    30   ar
@<TRIPOS>MOLECULE
*****
 35 39 0 0 0
SMALL
GASTEIGER

@<TRIPOS>ATOM
      1 C         139.3597  139.9874  161.4837 C.ar    1  UNL1        0.1233
      2 C         139.8628  139.9008  162.8942 C.ar    1  UNL1        0.1181
      3 N         139.3314  138.6352  163.4990 N.ar    1  UNL1       -0.2208
      4 N         138.4998  137.9396  162.4623 N.ar    1  UNL1       -0.0633
      5 N         138.5173  138.7753  161.2168 N.ar    1  UNL1       -0.1287
      6 C         139.8192  143.6279  159.9720 C.ar    1  UNL1        0.1547
      7 C         139.5307  142.5232  160.9447 C.ar    1  UNL1        0.0400
      8 C         139.6483  141.0921  160.5109 C.ar    1  UNL1        0.0241
      9 C         140.0545  140.7658  159.1043 C.ar    1  UNL1        0.0033
     10 C         140.3431  141.8705  158.1316 C.ar    1  UNL1        0.0207
     11 C         140.2254  143.3016  158.5654 C.ar    1  UNL1        0.0994
     12 N         140.5140  144.4063  157.5926 N.ar    1  UNL1       -0.2839
     13 C         141.7913  145.1872  157.4987 C.ar    1  UNL1        0.1826
     14 N         141.6426  146.1876  156.3909 N.ar    1  UNL1       -0.2280
     15 C         140.2735  146.0250  155.8001 C.ar    1  UNL1        0.0786
     16 C         139.7022  146.8231  154.6659 C.3     1  UNL1        0.0538
     17 C         139.5760  144.9241  156.5428 C.ar    1  UNL1        0.0963
     18 C         140.2698  145.4920  161.7247 C.3     1  UNL1        0.2525
     19 O         139.7016  145.0590  160.4058 O.3     1  UNL1       -0.4700
     20 C         139.5867  138.1504  164.8953 C.3     1  UNL1        0.2145
     21 C         139.3874  139.0758  166.0588 C.2     1  UNL1        0.2580
     22 O         138.0225  139.2441  166.6581 O.2     1  UNL1       -0.2720
     23 N         140.5527  139.8330  166.6232 N.am    1  UNL1       -0.2357
     24 C         140.3534  140.7585  167.7867 C.ar    1  UNL1        0.0581
     25 C         139.9583  140.2070  169.1245 C.ar    1  UNL1        0.0152
     26 C         139.7590  141.1325  170.2880 C.ar    1  UNL1        0.0013
     27 C         139.9549  142.6094  170.1137 C.ar    1  UNL1        0.0001
     28 C         140.3501  143.1609  168.7759 C.ar    1  UNL1        0.0013
     29 C         140.5493  142.2354  167.6124 C.ar    1  UNL1        0.0152
     30 C         141.9175  139.6646  166.0239 C.ar    1  UNL1        0.0581
     31 C         142.3858  140.6013  164.9499 C.ar    1  UNL1        0.0152
     32 C         143.7505  140.4330  164.3506 C.ar    1  UNL1        0.0013
     33 C         144.6470  139.3280  164.8253 C.ar    1  UNL1        0.0001
     34 C         144.1788  138.3914  165.8993 C.ar    1  UNL1        0.0013
     35 C         142.8140  138.5597  166.4985 C.ar    1  UNL1        0.0152
@<TRIPOS>BOND
     1    18    19    1
     2    19     6    1
     3     6     7   ar
     4     7     8   ar
     5     8     1    1
     6     1     2   ar
     7     2     3   ar
     8     3    20    1
     9    20    21    1
    10    21    22    2
    11    21    23   am
    12    23    24    1
    13    24    25   ar
    14    25    26   ar
    15    26    27   ar
    16    27    28   ar
    17    28    29   ar
    18    23    30    1
    19    30    31   ar
    20    31    32   ar
    21    32    33   ar
    22    33    34   ar
    23    34    35   ar
    24     3     4   ar
    25     4     5   ar
    26     8     9   ar
    27     9    10   ar
    28    10    11   ar
    29    11    12    1
    30    12    13   ar
    31    13    14   ar
    32    14    15   ar
    33    15    16    1
    34    15    17   ar
    35    11     6   ar
    36    17    12   ar
    37     5     1   ar
    38    29    24   ar
    39    35    30   ar
