@<TRIPOS>MOLECULE
*****
 19 22 0 0 0
SMALL
GASTEIGER

@<TRIPOS>ATOM
      1 BR        137.4294  139.9392  160.4184 Br      1  UNL1       -0.0473
      2 C         137.9121  139.4651  161.7572 C.ar    1  UNL1        0.0569
      3 C         138.2436  138.0171  161.9652 C.ar    1  UNL1        0.1074
      4 N         138.7263  137.5430  163.3040 N.ar    1  UNL1       -0.2219
      5 C         138.8774  138.5169  164.4347 C.ar    1  UNL1        0.2016
      6 N         139.3278  138.3440  165.8550 N.ar    1  UNL1       -0.1754
      7 C         139.2747  139.6851  166.5247 C.ar    1  UNL1        0.2938
      8 O         138.7914  140.6869  165.5184 O.2     1  UNL1       -0.4221
      9 C         138.5458  139.9649  164.2267 C.ar    1  UNL1        0.1846
     10 C         138.0632  140.4390  162.8879 C.ar    1  UNL1        0.0490
     11 N         139.8113  140.1083  168.6159 N.pl3   1  UNL1       -0.2637
     12 C         139.1260  140.2335  169.1738 C.3     1  UNL1        0.1123
     13 C         139.0935  140.3967  169.9632 C.3     1  UNL1        0.0939
     14 N         139.8682  140.5828  170.9211 N.3     1  UNL1       -0.2711
     15 C         140.1624  140.4233  170.1688 C.3     1  UNL1        0.0738
     16 C         140.7237  140.1661  168.9612 C.3     1  UNL1        0.0372
     17 C         141.1098  140.0138  168.2501 C.3     1  UNL1        0.0798
     18 C         141.9818  140.2479  169.4479 C.3     1  UNL1        0.0372
     19 C         141.3610  140.5324  170.7833 C.3     1  UNL1        0.0738
@<TRIPOS>BOND
     1     1     2    1
     2     2     3   ar
     3     3     4   ar
     4     4     5   ar
     5     5     6   ar
     6     6     7   ar
     7     7    11    1
     8    11    12    1
     9    12    13    1
    10    13    14    1
    11    14    15    1
    12    15    16    1
    13    16    17    1
    14    17    18    1
    15    18    19    1
    16     7     8   ar
    17     8     9   ar
    18     9    10   ar
    19    10     2   ar
    20     9     5   ar
    21    17    11    1
    22    19    14    1
@<TRIPOS>MOLECULE
*****
 19 22 0 0 0
SMALL
GASTEIGER

@<TRIPOS>ATOM
      1 BR        143.7700  137.9795  161.4086 Br      1  UNL1       -0.0473
      2 C         142.7291  138.2254  162.4603 C.ar    1  UNL1        0.0569
      3 C         141.3650  137.6170  162.3222 C.ar    1  UNL1        0.1074
      4 N         140.3241  137.8629  163.3739 N.ar    1  UNL1       -0.2219
      5 C         140.6473  138.7171  164.5637 C.ar    1  UNL1        0.2016
      6 N         139.8317  139.1332  165.7519 N.ar    1  UNL1       -0.1754
      7 C         140.6918  139.9987  166.6244 C.ar    1  UNL1        0.2938
      8 O         142.0389  140.1175  165.9755 O.2     1  UNL1       -0.4221
      9 C         142.0114  139.3254  164.7019 C.ar    1  UNL1        0.1846
     10 C         143.0523  139.0796  163.6502 C.ar    1  UNL1        0.0490
     11 N         140.0841  140.9302  168.5226 N.pl3   1  UNL1       -0.2637
     12 C         139.6339  140.4039  169.0855 C.3     1  UNL1        0.1123
     13 C         139.3227  140.5357  169.8181 C.3     1  UNL1        0.0939
     14 N         139.2282  141.4570  170.6514 N.3     1  UNL1       -0.2711
     15 C         139.6162  141.5776  169.9354 C.3     1  UNL1        0.0738
     16 C         140.2701  141.8545  168.7798 C.3     1  UNL1        0.0372
     17 C         140.6745  142.0695  168.0955 C.3     1  UNL1        0.0798
     18 C         140.5227  143.1311  169.1442 C.3     1  UNL1        0.0372
     19 C         139.7995  142.8248  170.4222 C.3     1  UNL1        0.0738
@<TRIPOS>BOND
     1     1     2    1
     2     2     3   ar
     3     3     4   ar
     4     4     5   ar
     5     5     6   ar
     6     6     7   ar
     7     7    11    1
     8    11    12    1
     9    12    13    1
    10    13    14    1
    11    14    15    1
    12    15    16    1
    13    16    17    1
    14    17    18    1
    15    18    19    1
    16     7     8   ar
    17     8     9   ar
    18     9    10   ar
    19    10     2   ar
    20     9     5   ar
    21    17    11    1
    22    19    14    1
@<TRIPOS>MOLECULE
*****
 19 22 0 0 0
SMALL
GASTEIGER

@<TRIPOS>ATOM
      1 BR        139.4714  138.3975  161.0574 Br      1  UNL1       -0.0473
      2 C         139.5167  138.6503  162.5352 C.ar    1  UNL1        0.0569
      3 C         138.8756  137.6796  163.4822 C.ar    1  UNL1        0.1074
      4 N         138.9208  137.9324  164.9600 N.ar    1  UNL1       -0.2219
      5 C         139.6072  139.1559  165.4909 C.ar    1  UNL1        0.2016
      6 N         139.8108  139.6666  166.8865 N.ar    1  UNL1       -0.1754
      7 C         140.5777  140.9530  166.8021 C.ar    1  UNL1        0.2938
      8 O         140.8481  141.2373  165.3544 O.2     1  UNL1       -0.4221
      9 C         140.2482  140.1266  164.5440 C.ar    1  UNL1        0.1846
     10 C         140.2030  139.8738  163.0661 C.ar    1  UNL1        0.0490
     11 N         141.1973  142.2032  168.5031 N.pl3   1  UNL1       -0.2637
     12 C         140.5702  142.7453  168.8339 C.3     1  UNL1        0.1123
     13 C         140.5792  143.2764  169.4411 C.3     1  UNL1        0.0939
     14 N         141.3687  143.7159  170.2988 N.3     1  UNL1       -0.2711
     15 C         141.6119  143.1435  169.7593 C.3     1  UNL1        0.0738
     16 C         142.0874  142.2021  168.9064 C.3     1  UNL1        0.0372
     17 C         142.4206  141.6338  168.4124 C.3     1  UNL1        0.0798
     18 C         143.3154  142.2077  169.4706 C.3     1  UNL1        0.0372
     19 C         142.7895  143.2487  170.4138 C.3     1  UNL1        0.0738
@<TRIPOS>BOND
     1     1     2    1
     2     2     3   ar
     3     3     4   ar
     4     4     5   ar
     5     5     6   ar
     6     6     7   ar
     7     7    11    1
     8    11    12    1
     9    12    13    1
    10    13    14    1
    11    14    15    1
    12    15    16    1
    13    16    17    1
    14    17    18    1
    15    18    19    1
    16     7     8   ar
    17     8     9   ar
    18     9    10   ar
    19    10     2   ar
    20     9     5   ar
    21    17    11    1
    22    19    14    1
@<TRIPOS>MOLECULE
*****
 19 22 0 0 0
SMALL
GASTEIGER

@<TRIPOS>ATOM
      1 BR        142.7141  142.8888  170.4027 Br      1  UNL1       -0.0473
      2 C         141.7311  142.0547  169.6359 C.ar    1  UNL1        0.0569
      3 C         140.6299  141.3383  170.3598 C.ar    1  UNL1        0.1074
      4 N         139.6468  140.5042  169.5931 N.ar    1  UNL1       -0.2219
      5 C         139.7650  140.3866  168.1024 C.ar    1  UNL1        0.2016
      6 N         138.9498  139.6427  167.0865 N.ar    1  UNL1       -0.1754
      7 C         139.5472  139.8993  165.7347 C.ar    1  UNL1        0.2938
      8 O         140.7315  140.8019  165.9151 O.2     1  UNL1       -0.4221
      9 C         140.8661  141.1031  167.3785 C.ar    1  UNL1        0.1846
     10 C         141.8492  141.9371  168.1453 C.ar    1  UNL1        0.0490
     11 N         138.8148  139.0935  163.8231 N.pl3   1  UNL1       -0.2637
     12 C         138.9755  138.2271  163.6811 C.3     1  UNL1        0.1123
     13 C         138.8001  137.7381  163.0639 C.3     1  UNL1        0.0939
     14 N         138.2373  137.7847  161.9534 N.3     1  UNL1       -0.2711
     15 C         138.2913  138.4577  162.4246 C.3     1  UNL1        0.0738
     16 C         138.3397  139.6081  163.1415 C.3     1  UNL1        0.0372
     17 C         138.3444  140.3291  163.5390 C.3     1  UNL1        0.0798
     18 C         137.6822  140.3114  162.1933 C.3     1  UNL1        0.0372
     19 C         137.6286  139.0392  161.4005 C.3     1  UNL1        0.0738
@<TRIPOS>BOND
     1     1     2    1
     2     2     3   ar
     3     3     4   ar
     4     4     5   ar
     5     5     6   ar
     6     6     7   ar
     7     7    11    1
     8    11    12    1
     9    12    13    1
    10    13    14    1
    11    14    15    1
    12    15    16    1
    13    16    17    1
    14    17    18    1
    15    18    19    1
    16     7     8   ar
    17     8     9   ar
    18     9    10   ar
    19    10     2   ar
    20     9     5   ar
    21    17    11    1
    22    19    14    1
@<TRIPOS>MOLECULE
*****
 19 22 0 0 0
SMALL
GASTEIGER

@<TRIPOS>ATOM
      1 BR        139.7736  146.0454  161.8713 Br      1  UNL1       -0.0473
      2 C         140.6465  145.0899  162.6297 C.ar    1  UNL1        0.0569
      3 C         141.9797  144.6880  162.0722 C.ar    1  UNL1        0.1074
      4 N         142.8526  143.7326  162.8306 N.ar    1  UNL1       -0.2219
      5 C         142.3923  143.1791  164.1465 C.ar    1  UNL1        0.2016
      6 N         143.0307  142.2263  165.1133 N.ar    1  UNL1       -0.1754
      7 C         142.0921  142.0394  166.2682 C.ar    1  UNL1        0.2938
      8 O         140.8734  142.8766  166.0153 O.2     1  UNL1       -0.4221
      9 C         141.0590  143.5809  164.7040 C.ar    1  UNL1        0.1846
     10 C         140.1861  144.5364  163.9456 C.ar    1  UNL1        0.0490
     11 N         142.4414  140.7616  168.0248 N.pl3   1  UNL1       -0.2637
     12 C         142.4290  139.8822  167.8725 C.3     1  UNL1        0.1123
     13 C         142.5309  139.2471  168.3594 C.3     1  UNL1        0.0939
     14 N         142.7583  139.0055  169.5603 N.3     1  UNL1       -0.2711
     15 C         142.6947  139.7818  169.2936 C.3     1  UNL1        0.0738
     16 C         142.6040  141.0860  168.9321 C.3     1  UNL1        0.0372
     17 C         142.5577  141.8900  168.7609 C.3     1  UNL1        0.0798
     18 C         142.8297  141.5250  170.1901 C.3     1  UNL1        0.0372
     19 C         142.9300  140.0828  170.5898 C.3     1  UNL1        0.0738
@<TRIPOS>BOND
     1     1     2    1
     2     2     3   ar
     3     3     4   ar
     4     4     5   ar
     5     5     6   ar
     6     6     7   ar
     7     7    11    1
     8    11    12    1
     9    12    13    1
    10    13    14    1
    11    14    15    1
    12    15    16    1
    13    16    17    1
    14    17    18    1
    15    18    19    1
    16     7     8   ar
    17     8     9   ar
    18     9    10   ar
    19    10     2   ar
    20     9     5   ar
    21    17    11    1
    22    19    14    1
@<TRIPOS>MOLECULE
*****
 19 22 0 0 0
SMALL
GASTEIGER

@<TRIPOS>ATOM
      1 BR        139.9665  145.9811  161.6188 Br      1  UNL1       -0.0473
      2 C         140.3725  144.9092  162.5865 C.ar    1  UNL1        0.0569
      3 C         141.4009  143.8917  162.1905 C.ar    1  UNL1        0.1074
      4 N         141.8069  142.8198  163.1581 N.ar    1  UNL1       -0.2219
      5 C         141.1844  142.7655  164.5217 C.ar    1  UNL1        0.2016
      6 N         141.3833  141.8327  165.6794 N.ar    1  UNL1       -0.1754
      7 C         140.4777  142.2737  166.7910 C.ar    1  UNL1        0.2938
      8 O         139.7192  143.4791  166.3202 O.2     1  UNL1       -0.4221
      9 C         140.1559  143.7830  164.9177 C.ar    1  UNL1        0.1846
     10 C         139.7500  144.8549  163.9501 C.ar    1  UNL1        0.0490
     11 N         140.2944  141.3200  168.7651 N.pl3   1  UNL1       -0.2637
     12 C         139.6452  140.7125  168.8428 C.3     1  UNL1        0.1123
     13 C         139.4057  140.2523  169.4606 C.3     1  UNL1        0.0939
     14 N         139.7049  140.0409  170.6514 N.3     1  UNL1       -0.2711
     15 C         140.1238  140.5916  170.2053 C.3     1  UNL1        0.0738
     16 C         140.8609  141.5137  169.5374 C.3     1  UNL1        0.0372
     17 C         141.3352  142.0804  169.1743 C.3     1  UNL1        0.0798
     18 C         141.6392  141.7748  170.6109 C.3     1  UNL1        0.0372
     19 C         140.8240  140.7551  171.3495 C.3     1  UNL1        0.0738
@<TRIPOS>BOND
     1     1     2    1
     2     2     3   ar
     3     3     4   ar
     4     4     5   ar
     5     5     6   ar
     6     6     7   ar
     7     7    11    1
     8    11    12    1
     9    12    13    1
    10    13    14    1
    11    14    15    1
    12    15    16    1
    13    16    17    1
    14    17    18    1
    15    18    19    1
    16     7     8   ar
    17     8     9   ar
    18     9    10   ar
    19    10     2   ar
    20     9     5   ar
    21    17    11    1
    22    19    14    1
@<TRIPOS>MOLECULE
*****
 19 22 0 0 0
SMALL
GASTEIGER

@<TRIPOS>ATOM
      1 BR        142.9044  138.5875  169.9676 Br      1  UNL1       -0.0473
      2 C         142.2077  139.7913  169.4060 C.ar    1  UNL1        0.0569
      3 C         141.7008  140.8618  170.3263 C.ar    1  UNL1        0.1074
      4 N         141.0041  142.0657  169.7647 N.ar    1  UNL1       -0.2219
      5 C         140.8144  142.1990  168.2828 C.ar    1  UNL1        0.2016
      6 N         140.1710  143.2640  167.4450 N.ar    1  UNL1       -0.1754
      7 C         140.2802  142.8517  166.0069 C.ar    1  UNL1        0.2938
      8 O         140.9911  141.5319  165.9559 O.2     1  UNL1       -0.4221
      9 C         141.3212  141.1285  167.3625 C.ar    1  UNL1        0.1846
     10 C         142.0179  139.9247  167.9241 C.ar    1  UNL1        0.0490
     11 N         139.5296  143.9840  164.2765 N.pl3   1  UNL1       -0.2637
     12 C         138.6749  143.8423  164.0622 C.3     1  UNL1        0.1123
     13 C         138.2058  144.1437  163.4792 C.3     1  UNL1        0.0939
     14 N         138.2797  144.9457  162.5286 N.3     1  UNL1       -0.2711
     15 C         138.9346  144.7994  163.0056 C.3     1  UNL1        0.0738
     16 C         140.0564  144.6123  163.7447 C.3     1  UNL1        0.0372
     17 C         140.7608  144.5319  164.1634 C.3     1  UNL1        0.0798
     18 C         140.7768  145.4829  163.0036 C.3     1  UNL1        0.0372
     19 C         139.5363  145.6898  162.1862 C.3     1  UNL1        0.0738
@<TRIPOS>BOND
     1     1     2    1
     2     2     3   ar
     3     3     4   ar
     4     4     5   ar
     5     5     6   ar
     6     6     7   ar
     7     7    11    1
     8    11    12    1
     9    12    13    1
    10    13    14    1
    11    14    15    1
    12    15    16    1
    13    16    17    1
    14    17    18    1
    15    18    19    1
    16     7     8   ar
    17     8     9   ar
    18     9    10   ar
    19    10     2   ar
    20     9     5   ar
    21    17    11    1
    22    19    14    1
@<TRIPOS>MOLECULE
*****
 19 22 0 0 0
SMALL
GASTEIGER

@<TRIPOS>ATOM
      1 BR        144.0814  142.6532  160.7501 Br      1  UNL1       -0.0473
      2 C         143.8660  142.1706  162.1539 C.ar    1  UNL1        0.0569
      3 C         144.8003  141.1607  162.7515 C.ar    1  UNL1        0.1074
      4 N         144.5849  140.6780  164.1552 N.ar    1  UNL1       -0.2219
      5 C         143.4352  141.2052  164.9615 C.ar    1  UNL1        0.2016
      6 N         142.9743  140.9176  166.3596 N.ar    1  UNL1       -0.1754
      7 C         141.7551  141.7498  166.6262 C.ar    1  UNL1        0.2938
      8 O         141.4624  142.5517  165.3928 O.2     1  UNL1       -0.4221
      9 C         142.5008  142.2151  164.3639 C.ar    1  UNL1        0.1846
     10 C         142.7163  142.6978  162.9601 C.ar    1  UNL1        0.0490
     11 N         140.5990  141.7875  168.4977 N.pl3   1  UNL1       -0.2637
     12 C         140.1739  141.0308  168.7055 C.3     1  UNL1        0.1123
     13 C         139.7044  140.8275  169.3292 C.3     1  UNL1        0.0939
     14 N         139.2494  141.3342  170.3725 N.3     1  UNL1       -0.2711
     15 C         139.7339  141.7716  169.8707 C.3     1  UNL1        0.0738
     16 C         140.5242  142.5562  169.0965 C.3     1  UNL1        0.0372
     17 C         140.9974  143.0696  168.6601 C.3     1  UNL1        0.0798
     18 C         140.4148  143.6138  169.9307 C.3     1  UNL1        0.0372
     19 C         139.5408  142.7461  170.7868 C.3     1  UNL1        0.0738
@<TRIPOS>BOND
     1     1     2    1
     2     2     3   ar
     3     3     4   ar
     4     4     5   ar
     5     5     6   ar
     6     6     7   ar
     7     7    11    1
     8    11    12    1
     9    12    13    1
    10    13    14    1
    11    14    15    1
    12    15    16    1
    13    16    17    1
    14    17    18    1
    15    18    19    1
    16     7     8   ar
    17     8     9   ar
    18     9    10   ar
    19    10     2   ar
    20     9     5   ar
    21    17    11    1
    22    19    14    1
@<TRIPOS>MOLECULE
*****
 19 22 0 0 0
SMALL
GASTEIGER

@<TRIPOS>ATOM
      1 BR        137.9243  138.2003  161.5498 Br      1  UNL1       -0.0473
      2 C         138.2922  139.1433  162.6567 C.ar    1  UNL1        0.0569
      3 C         138.2376  140.6249  162.4290 C.ar    1  UNL1        0.1074
      4 N         138.6056  141.5679  163.5360 N.ar    1  UNL1       -0.2219
      5 C         139.0281  141.0293  164.8706 C.ar    1  UNL1        0.2016
      6 N         139.4453  141.7092  166.1409 N.ar    1  UNL1       -0.1754
      7 C         139.7578  140.6477  167.1538 C.ar    1  UNL1        0.2938
      8 O         139.5337  139.3119  166.5094 O.2     1  UNL1       -0.4221
      9 C         139.0828  139.5477  165.0983 C.ar    1  UNL1        0.1846
     10 C         138.7148  138.6047  163.9914 C.ar    1  UNL1        0.0490
     11 N         140.4273  140.9902  169.2213 N.pl3   1  UNL1       -0.2637
     12 C         140.0205  140.4997  169.8463 C.3     1  UNL1        0.1123
     13 C         140.1072  140.4639  170.6475 C.3     1  UNL1        0.0939
     14 N         140.7874  140.9922  171.5477 N.3     1  UNL1       -0.2711
     15 C         140.8908  141.2112  170.7609 C.3     1  UNL1        0.0738
     16 C         141.1198  141.6253  169.4897 C.3     1  UNL1        0.0372
     17 C         141.2938  141.9082  168.7363 C.3     1  UNL1        0.0798
     18 C         142.0761  142.5009  169.8706 C.3     1  UNL1        0.0372
     19 C         141.8229  142.0429  171.2763 C.3     1  UNL1        0.0738
@<TRIPOS>BOND
     1     1     2    1
     2     2     3   ar
     3     3     4   ar
     4     4     5   ar
     5     5     6   ar
     6     6     7   ar
     7     7    11    1
     8    11    12    1
     9    12    13    1
    10    13    14    1
    11    14    15    1
    12    15    16    1
    13    16    17    1
    14    17    18    1
    15    18    19    1
    16     7     8   ar
    17     8     9   ar
    18     9    10   ar
    19    10     2   ar
    20     9     5   ar
    21    17    11    1
    22    19    14    1
