@<TRIPOS>MOLECULE
*****
 24 27 0 0 0
SMALL
GASTEIGER

@<TRIPOS>ATOM
      1 C         140.9285  141.9463  167.2393 C.3     1  UNL1        0.1686
      2 C         142.3487  141.4664  167.2914 C.3     1  UNL1        0.0595
      3 C         143.2173  141.8197  168.4622 C.3     1  UNL1        0.0614
      4 C         143.6916  142.3899  169.7659 C.3     1  UNL1        0.0175
      5 C         142.5531  143.1480  170.3818 C.3     1  UNL1        0.0175
      6 C         141.3752  143.0463  169.4586 C.3     1  UNL1        0.0614
      7 C         140.3769  142.7795  168.3581 C.3     1  UNL1        0.0595
      8 N         141.7857  142.2254  168.2722 N.3     1  UNL1       -0.2713
      9 O         140.0598  141.5931  166.0685 O.3     1  UNL1       -0.4790
     10 O         136.8127  137.7212  167.2784 O.3     1  UNL1       -0.5054
     11 C         137.9724  138.2434  166.4833 C.ar    1  UNL1        0.1367
     12 C         138.6683  137.3519  165.4979 C.ar    1  UNL1        0.0368
     13 C         139.8281  137.8741  164.7028 C.ar    1  UNL1        0.0062
     14 C         140.2919  139.2878  164.8930 C.ar    1  UNL1        0.0371
     15 C         139.5960  140.1793  165.8783 C.ar    1  UNL1        0.1414
     16 C         138.4363  139.6572  166.6734 C.ar    1  UNL1        0.0735
     17 H         136.5229  136.8380  167.1596 H       1  UNL1        0.2922
     18 C         140.9171  141.8721  167.1014 C.3     1  UNL1        0.0991
     19 C         140.6846  142.8749  166.0104 C.ar    1  UNL1       -0.0061
     20 C         139.4223  143.6850  165.9928 C.ar    1  UNL1       -0.0029
     21 C         139.1898  144.6877  164.9019 C.ar    1  UNL1       -0.0003
     22 C         140.2196  144.8805  163.8284 C.ar    1  UNL1       -0.0000
     23 C         141.4820  144.0704  163.8459 C.ar    1  UNL1       -0.0003
     24 C         141.7144  143.0676  164.9370 C.ar    1  UNL1       -0.0029
@<TRIPOS>BOND
     1    10    11    1
     2    11    12   ar
     3    12    13   ar
     4    13    14   ar
     5    14    15   ar
     6    15     9    1
     7     1     9    1
     8     1     2    1
     9     3     2    1
    10     3     4    1
    11     4     5    1
    12     6     5    1
    13     6     7    1
    14     6     8    1
    15     8    18    1
    16    18    19    1
    17    19    20   ar
    18    20    21   ar
    19    21    22   ar
    20    22    23   ar
    21    23    24   ar
    22    15    16   ar
    23    16    11   ar
    24     7     1    1
    25    24    19   ar
    26     8     3    1
    27    10    17    1
@<TRIPOS>MOLECULE
*****
 24 27 0 0 0
SMALL
GASTEIGER

@<TRIPOS>ATOM
      1 C         140.6722  142.3948  165.7783 C.3     1  UNL1        0.1686
      2 C         139.4329  143.1330  165.3674 C.3     1  UNL1        0.0595
      3 C         139.5238  144.2626  164.3846 C.3     1  UNL1        0.0614
      4 C         140.0688  145.2750  163.4213 C.3     1  UNL1        0.0175
      5 C         141.5524  145.0746  163.3283 C.3     1  UNL1        0.0175
      6 C         141.9244  143.9384  164.2343 C.3     1  UNL1        0.0614
      7 C         142.0026  142.7861  165.2064 C.3     1  UNL1        0.0595
      8 N         140.6707  143.4366  164.8871 N.3     1  UNL1       -0.2713
      9 O         140.5813  141.2651  166.7611 O.3     1  UNL1       -0.4790
     10 O         136.8237  137.7423  167.4462 O.3     1  UNL1       -0.5054
     11 C         138.0402  138.2172  166.7083 C.ar    1  UNL1        0.1367
     12 C         138.5945  137.4056  165.5752 C.ar    1  UNL1        0.0368
     13 C         139.8110  137.8805  164.8373 C.ar    1  UNL1        0.0062
     14 C         140.4733  139.1670  165.2326 C.ar    1  UNL1        0.0371
     15 C         139.9190  139.9786  166.3658 C.ar    1  UNL1        0.1414
     16 C         138.7025  139.5038  167.1036 C.ar    1  UNL1        0.0735
     17 H         136.4100  136.9387  167.1993 H       1  UNL1        0.2922
     18 C         140.5797  142.3070  165.8699 C.3     1  UNL1        0.0991
     19 C         141.1510  142.4639  167.2479 C.ar    1  UNL1       -0.0061
     20 C         142.5529  142.0138  167.5343 C.ar    1  UNL1       -0.0029
     21 C         143.1242  142.1707  168.9123 C.ar    1  UNL1       -0.0003
     22 C         142.2937  142.7777  170.0039 C.ar    1  UNL1       -0.0000
     23 C         140.8917  143.2279  169.7175 C.ar    1  UNL1       -0.0003
     24 C         140.3204  143.0709  168.3394 C.ar    1  UNL1       -0.0029
@<TRIPOS>BOND
     1    10    11    1
     2    11    12   ar
     3    12    13   ar
     4    13    14   ar
     5    14    15   ar
     6    15     9    1
     7     1     9    1
     8     1     2    1
     9     3     2    1
    10     3     4    1
    11     4     5    1
    12     6     5    1
    13     6     7    1
    14     6     8    1
    15     8    18    1
    16    18    19    1
    17    19    20   ar
    18    20    21   ar
    19    21    22   ar
    20    22    23   ar
    21    23    24   ar
    22    15    16   ar
    23    16    11   ar
    24     7     1    1
    25    24    19   ar
    26     8     3    1
    27    10    17    1
@<TRIPOS>MOLECULE
*****
 24 27 0 0 0
SMALL
GASTEIGER

@<TRIPOS>ATOM
      1 C         141.7210  142.3124  165.7781 C.3     1  UNL1        0.1686
      2 C         140.6462  143.1806  165.1940 C.3     1  UNL1        0.0595
      3 C         141.0116  144.3209  164.2906 C.3     1  UNL1        0.0614
      4 C         141.8078  145.2991  163.4786 C.3     1  UNL1        0.0175
      5 C         143.2597  144.9550  163.6316 C.3     1  UNL1        0.0175
      6 C         143.3610  143.7641  164.5380 C.3     1  UNL1        0.0614
      7 C         143.1611  142.5846  165.4588 C.3     1  UNL1        0.0595
      8 N         141.9715  143.3722  164.9453 N.3     1  UNL1       -0.2713
      9 O         141.3556  141.1721  166.6815 O.3     1  UNL1       -0.4790
     10 O         141.2678  136.8023  163.8714 O.3     1  UNL1       -0.5054
     11 C         140.5614  137.8086  164.7306 C.ar    1  UNL1        0.1367
     12 C         139.1046  137.6364  165.0439 C.ar    1  UNL1        0.0368
     13 C         138.3982  138.6427  165.9032 C.ar    1  UNL1        0.0062
     14 C         139.1485  139.8212  166.4490 C.ar    1  UNL1        0.0371
     15 C         140.6053  139.9935  166.1357 C.ar    1  UNL1        0.1414
     16 C         141.3117  138.9872  165.2765 C.ar    1  UNL1        0.0735
     17 H         140.7991  136.0661  163.5304 H       1  UNL1        0.2922
     18 C         141.6061  142.2319  165.8487 C.3     1  UNL1        0.0991
     19 C         141.7515  142.3760  167.3347 C.ar    1  UNL1       -0.0061
     20 C         143.0416  142.0009  168.0019 C.ar    1  UNL1       -0.0029
     21 C         143.1870  142.1449  169.4878 C.ar    1  UNL1       -0.0003
     22 C         142.0424  142.6640  170.3066 C.ar    1  UNL1       -0.0000
     23 C         140.7523  143.0391  169.6394 C.ar    1  UNL1       -0.0003
     24 C         140.6070  142.8950  168.1534 C.ar    1  UNL1       -0.0029
@<TRIPOS>BOND
     1    10    11    1
     2    11    12   ar
     3    12    13   ar
     4    13    14   ar
     5    14    15   ar
     6    15     9    1
     7     1     9    1
     8     1     2    1
     9     3     2    1
    10     3     4    1
    11     4     5    1
    12     6     5    1
    13     6     7    1
    14     6     8    1
    15     8    18    1
    16    18    19    1
    17    19    20   ar
    18    20    21   ar
    19    21    22   ar
    20    22    23   ar
    21    23    24   ar
    22    15    16   ar
    23    16    11   ar
    24     7     1    1
    25    24    19   ar
    26     8     3    1
    27    10    17    1
@<TRIPOS>MOLECULE
*****
 24 27 0 0 0
SMALL
GASTEIGER

@<TRIPOS>ATOM
      1 C         142.0798  141.1842  165.7956 C.3     1  UNL1        0.1686
      2 C         143.0159  142.2018  165.2142 C.3     1  UNL1        0.0595
      3 C         144.2876  141.7596  164.5530 C.3     1  UNL1        0.0614
      4 C         145.3900  140.8971  164.0138 C.3     1  UNL1        0.0175
      5 C         145.0433  139.4668  164.3035 C.3     1  UNL1        0.0175
      6 C         143.7266  139.4453  165.0218 C.3     1  UNL1        0.0614
      7 C         142.4154  139.7244  165.7160 C.3     1  UNL1        0.0595
      8 N         143.2596  140.8624  165.1760 N.3     1  UNL1       -0.2713
      9 O         140.8080  141.6264  166.4568 O.3     1  UNL1       -0.4790
     10 O         136.7199  141.4274  163.2556 O.3     1  UNL1       -0.5054
     11 C         137.7061  142.2263  164.0551 C.ar    1  UNL1        0.1367
     12 C         137.6344  143.7245  164.0535 C.ar    1  UNL1        0.0368
     13 C         138.6205  144.5234  164.8531 C.ar    1  UNL1        0.0062
     14 C         139.6784  143.8241  165.6541 C.ar    1  UNL1        0.0371
     15 C         139.7501  142.3258  165.6557 C.ar    1  UNL1        0.1414
     16 C         138.7640  141.5269  164.8562 C.ar    1  UNL1        0.0735
     17 H         136.0591  141.8643  162.7552 H       1  UNL1        0.2922
     18 C         141.9879  141.3046  165.8372 C.3     1  UNL1        0.0991
     19 C         141.8429  141.2046  167.3268 C.ar    1  UNL1       -0.0061
     20 C         141.0025  140.1168  167.9272 C.ar    1  UNL1       -0.0029
     21 C         140.8575  140.0168  169.4168 C.ar    1  UNL1       -0.0003
     22 C         141.5529  141.0046  170.3060 C.ar    1  UNL1       -0.0000
     23 C         142.3933  142.0925  169.7056 C.ar    1  UNL1       -0.0003
     24 C         142.5382  142.1924  168.2159 C.ar    1  UNL1       -0.0029
@<TRIPOS>BOND
     1    10    11    1
     2    11    12   ar
     3    12    13   ar
     4    13    14   ar
     5    14    15   ar
     6    15     9    1
     7     1     9    1
     8     1     2    1
     9     3     2    1
    10     3     4    1
    11     4     5    1
    12     6     5    1
    13     6     7    1
    14     6     8    1
    15     8    18    1
    16    18    19    1
    17    19    20   ar
    18    20    21   ar
    19    21    22   ar
    20    22    23   ar
    21    23    24   ar
    22    15    16   ar
    23    16    11   ar
    24     7     1    1
    25    24    19   ar
    26     8     3    1
    27    10    17    1
@<TRIPOS>MOLECULE
*****
 24 27 0 0 0
SMALL
GASTEIGER

@<TRIPOS>ATOM
      1 C         140.5133  141.7126  166.6555 C.3     1  UNL1        0.1686
      2 C         139.9661  140.3709  167.0430 C.3     1  UNL1        0.0595
      3 C         139.5549  140.1099  168.4617 C.3     1  UNL1        0.0614
      4 C         139.2857  140.2938  169.9258 C.3     1  UNL1        0.0175
      5 C         139.6802  141.6925  170.2975 C.3     1  UNL1        0.0175
      6 C         140.1932  142.3730  169.0630 C.3     1  UNL1        0.0614
      7 C         140.6494  142.7934  167.6867 C.3     1  UNL1        0.0595
      8 N         140.1158  141.3948  167.9284 N.3     1  UNL1       -0.2713
      9 O         140.9246  141.9737  165.2367 O.3     1  UNL1       -0.4790
     10 O         144.8443  139.1806  163.2786 O.3     1  UNL1       -0.5054
     11 C         144.3266  140.4620  163.8616 C.ar    1  UNL1        0.1367
     12 C         145.2511  141.6284  164.0485 C.ar    1  UNL1        0.0368
     13 C         144.7334  142.9098  164.6314 C.ar    1  UNL1        0.0062
     14 C         143.2913  143.0249  165.0275 C.ar    1  UNL1        0.0371
     15 C         142.3668  141.8586  164.8406 C.ar    1  UNL1        0.1414
     16 C         142.8844  140.5772  164.2577 C.ar    1  UNL1        0.0735
     17 H         145.7452  139.1087  163.0312 H       1  UNL1        0.2922
     18 C         140.5270  141.6558  166.5097 C.3     1  UNL1        0.0991
     19 C         139.6218  142.4282  165.5964 C.ar    1  UNL1       -0.0061
     20 C         138.6304  141.7039  164.7347 C.ar    1  UNL1       -0.0029
     21 C         137.7252  142.4762  163.8215 C.ar    1  UNL1       -0.0003
     22 C         137.8114  143.9728  163.7699 C.ar    1  UNL1       -0.0000
     23 C         138.8028  144.6972  164.6317 C.ar    1  UNL1       -0.0003
     24 C         139.7080  143.9248  165.5449 C.ar    1  UNL1       -0.0029
@<TRIPOS>BOND
     1    10    11    1
     2    11    12   ar
     3    12    13   ar
     4    13    14   ar
     5    14    15   ar
     6    15     9    1
     7     1     9    1
     8     1     2    1
     9     3     2    1
    10     3     4    1
    11     4     5    1
    12     6     5    1
    13     6     7    1
    14     6     8    1
    15     8    18    1
    16    18    19    1
    17    19    20   ar
    18    20    21   ar
    19    21    22   ar
    20    22    23   ar
    21    23    24   ar
    22    15    16   ar
    23    16    11   ar
    24     7     1    1
    25    24    19   ar
    26     8     3    1
    27    10    17    1
@<TRIPOS>MOLECULE
*****
 24 27 0 0 0
SMALL
GASTEIGER

@<TRIPOS>ATOM
      1 C         142.1140  141.3052  166.8440 C.3     1  UNL1        0.1686
      2 C         141.6445  139.9347  167.2331 C.3     1  UNL1        0.0595
      3 C         141.9174  139.4121  168.6124 C.3     1  UNL1        0.0614
      4 C         142.3931  139.3107  170.0313 C.3     1  UNL1        0.0175
      5 C         143.0928  140.5913  170.3782 C.3     1  UNL1        0.0175
      6 C         143.0495  141.4842  169.1737 C.3     1  UNL1        0.0614
      7 C         142.8564  142.1529  167.8340 C.3     1  UNL1        0.0595
      8 N         142.3230  140.7554  168.0823 N.3     1  UNL1       -0.2713
      9 O         141.8411  141.8279  165.4647 O.3     1  UNL1       -0.4790
     10 O         137.0502  141.0708  163.6009 O.3     1  UNL1       -0.5054
     11 C         138.0866  141.9824  164.1881 C.ar    1  UNL1        0.1367
     12 C         137.7640  143.4271  164.4305 C.ar    1  UNL1        0.0368
     13 C         138.8004  144.3387  165.0176 C.ar    1  UNL1        0.0062
     14 C         140.1594  143.8056  165.3623 C.ar    1  UNL1        0.0371
     15 C         140.4820  142.3610  165.1199 C.ar    1  UNL1        0.1414
     16 C         139.4457  141.4493  164.5328 C.ar    1  UNL1        0.0735
     17 H         136.2013  141.4038  163.3856 H       1  UNL1        0.2922
     18 C         142.0501  141.2781  166.7031 C.3     1  UNL1        0.0991
     19 C         143.1788  141.4543  165.7309 C.ar    1  UNL1       -0.0061
     20 C         143.7816  142.8115  165.5196 C.ar    1  UNL1       -0.0029
     21 C         144.9102  142.9878  164.5475 C.ar    1  UNL1       -0.0003
     22 C         145.4359  141.8069  163.7865 C.ar    1  UNL1       -0.0000
     23 C         144.8331  140.4496  163.9978 C.ar    1  UNL1       -0.0003
     24 C         143.7044  140.2734  164.9700 C.ar    1  UNL1       -0.0029
@<TRIPOS>BOND
     1    10    11    1
     2    11    12   ar
     3    12    13   ar
     4    13    14   ar
     5    14    15   ar
     6    15     9    1
     7     1     9    1
     8     1     2    1
     9     3     2    1
    10     3     4    1
    11     4     5    1
    12     6     5    1
    13     6     7    1
    14     6     8    1
    15     8    18    1
    16    18    19    1
    17    19    20   ar
    18    20    21   ar
    19    21    22   ar
    20    22    23   ar
    21    23    24   ar
    22    15    16   ar
    23    16    11   ar
    24     7     1    1
    25    24    19   ar
    26     8     3    1
    27    10    17    1
@<TRIPOS>MOLECULE
*****
 24 27 0 0 0
SMALL
GASTEIGER

@<TRIPOS>ATOM
      1 C         141.2922  141.9230  166.8656 C.3     1  UNL1        0.1686
      2 C         142.7429  141.6331  167.1131 C.3     1  UNL1        0.0595
      3 C         143.3701  142.0093  168.4227 C.3     1  UNL1        0.0614
      4 C         143.5609  142.5376  169.8136 C.3     1  UNL1        0.0175
      5 C         142.2478  143.0894  170.2839 C.3     1  UNL1        0.0175
      6 C         141.2455  142.9022  169.1837 C.3     1  UNL1        0.0614
      7 C         140.4686  142.5890  167.9278 C.3     1  UNL1        0.0595
      8 N         141.9391  142.2346  168.0334 N.3     1  UNL1       -0.2713
      9 O         140.6649  141.5468  165.5560 O.3     1  UNL1       -0.4790
     10 O         141.1076  136.8765  163.3216 O.3     1  UNL1       -0.5054
     11 C         140.3709  137.8191  164.2266 C.ar    1  UNL1        0.1367
     12 C         139.1190  137.3689  164.9194 C.ar    1  UNL1        0.0368
     13 C         138.3823  138.3115  165.8244 C.ar    1  UNL1        0.0062
     14 C         138.8976  139.7040  166.0365 C.ar    1  UNL1        0.0371
     15 C         140.1496  140.1542  165.3438 C.ar    1  UNL1        0.1414
     16 C         140.8862  139.2117  164.4388 C.ar    1  UNL1        0.0735
     17 H         140.7857  136.0066  163.1891 H       1  UNL1        0.2922
     18 C         141.3119  141.8585  166.7238 C.3     1  UNL1        0.0991
     19 C         140.9881  142.9202  165.7149 C.ar    1  UNL1       -0.0061
     20 C         142.0136  143.3269  164.6987 C.ar    1  UNL1       -0.0029
     21 C         141.6898  144.3886  163.6898 C.ar    1  UNL1       -0.0003
     22 C         140.3404  145.0436  163.6971 C.ar    1  UNL1       -0.0000
     23 C         139.3147  144.6368  164.7134 C.ar    1  UNL1       -0.0003
     24 C         139.6387  143.5751  165.7223 C.ar    1  UNL1       -0.0029
@<TRIPOS>BOND
     1    10    11    1
     2    11    12   ar
     3    12    13   ar
     4    13    14   ar
     5    14    15   ar
     6    15     9    1
     7     1     9    1
     8     1     2    1
     9     3     2    1
    10     3     4    1
    11     4     5    1
    12     6     5    1
    13     6     7    1
    14     6     8    1
    15     8    18    1
    16    18    19    1
    17    19    20   ar
    18    20    21   ar
    19    21    22   ar
    20    22    23   ar
    21    23    24   ar
    22    15    16   ar
    23    16    11   ar
    24     7     1    1
    25    24    19   ar
    26     8     3    1
    27    10    17    1
