@<TRIPOS>MOLECULE
*****
 31 34 0 0 0
SMALL
GASTEIGER

@<TRIPOS>ATOM
      1 C         144.3462  140.3491  162.2135 C.ar    1  UNL1        0.0694
      2 C         143.8311  139.2135  163.0473 C.ar    1  UNL1        0.0858
      3 S         143.1615  138.2324  162.1313 S.2     1  UNL1       -0.0709
      4 C         143.2628  138.7617  160.7313 C.ar    1  UNL1        0.0598
      5 C         143.9950  140.0699  160.7822 C.ar    1  UNL1       -0.0026
      6 C         144.2473  140.8378  159.5186 C.3     1  UNL1        0.0879
      7 C         143.7674  140.2975  158.2042 C.3     1  UNL1        0.1136
      8 N         143.0353  138.9894  158.1533 N.4     1  UNL1        0.3010
      9 C         142.2934  137.7021  157.9471 C.3     1  UNL1        0.1091
     10 C         142.0126  137.5587  156.4806 C.3     1  UNL1        0.0671
     11 C         142.5810  138.7574  155.7804 C.3     1  UNL1        0.0671
     12 C         143.2131  139.6416  156.8142 C.3     1  UNL1        0.1091
     13 C         142.7830  138.2215  159.4169 C.3     1  UNL1        0.1422
     14 N         143.9625  139.0821  164.5358 N.am    1  UNL1       -0.2629
     15 C         143.0862  139.8964  165.4408 C.2     1  UNL1        0.3085
     16 O         142.0787  140.8422  164.8574 O.2     1  UNL1       -0.2521
     17 N         143.2176  139.7650  166.9292 N.am    1  UNL1       -0.2680
     18 H         144.6238  138.4613  164.9187 H       1  UNL1        0.1569
     19 H         143.8789  139.1443  167.3121 H       1  UNL1        0.1564
     20 C         142.3414  140.5793  167.8343 C.ar    1  UNL1        0.0516
     21 C         142.8431  141.8768  168.3955 C.ar    1  UNL1        0.0156
     22 C         141.9669  142.6911  169.3006 C.ar    1  UNL1        0.0127
     23 C         140.5891  142.2079  169.6445 C.ar    1  UNL1        0.0578
     24 CL        139.7130  143.0223  170.5496 Cl      1  UNL1       -0.0822
     25 C         140.0874  140.9105  169.0833 C.ar    1  UNL1        0.0127
     26 C         140.9636  140.0962  168.1782 C.ar    1  UNL1        0.0156
     27 N         144.9348  142.8727  162.0251 N.am    1  UNL1       -0.3253
     28 C         145.0832  141.5527  162.7220 C.2     1  UNL1        0.2442
     29 O         145.9685  141.4361  163.9271 O.2     1  UNL1       -0.2703
     30 H         145.4185  143.6626  162.3588 H       1  UNL1        0.1453
     31 H         144.3537  142.9492  161.2341 H       1  UNL1        0.1453
@<TRIPOS>UNITY_ATOM_ATTR
8 1
charge 1
@<TRIPOS>BOND
     1    27    28   am
     2    28    29    2
     3    28     1    1
     4     1     2   ar
     5     2    14    1
     6    14    15   am
     7    15    16    2
     8    15    17   am
     9    17    20    1
    10    20    21   ar
    11    21    22   ar
    12    22    23   ar
    13    23    24    1
    14    23    25   ar
    15    25    26   ar
    16     2     3   ar
    17     3     4   ar
    18     4     5   ar
    19     5     6    1
    20     6     7    1
    21     7     8    1
    22     8     9    1
    23     9    10    1
    24    10    11    1
    25    11    12    1
    26     8    13    1
    27     5     1   ar
    28    12     8    1
    29    26    20   ar
    30    13     4    1
    31    27    30    1
    32    27    31    1
    33    14    18    1
    34    17    19    1
@<TRIPOS>MOLECULE
*****
 31 34 0 0 0
SMALL
GASTEIGER

@<TRIPOS>ATOM
      1 C         140.2735  144.3376  162.8014 C.ar    1  UNL1        0.0694
      2 C         141.6323  144.4214  162.1714 C.ar    1  UNL1        0.0858
      3 S         142.5557  143.5232  162.9400 S.2     1  UNL1       -0.0709
      4 C         141.7675  142.8844  164.0449 C.ar    1  UNL1        0.0598
      5 C         140.3571  143.3877  163.9592 C.ar    1  UNL1       -0.0026
      6 C         139.3312  142.9160  164.9466 C.3     1  UNL1        0.0879
      7 C         139.7157  141.9410  166.0197 C.3     1  UNL1        0.1136
      8 N         141.1261  141.4377  166.1054 N.4     1  UNL1        0.3010
      9 C         142.4901  140.8498  166.3150 C.3     1  UNL1        0.1091
     10 C         142.4210  139.9282  167.4964 C.3     1  UNL1        0.0671
     11 C         141.0144  139.9465  168.0170 C.3     1  UNL1        0.0671
     12 C         140.2141  140.8794  167.1573 C.3     1  UNL1        0.1091
     13 C         142.1520  141.9094  165.1180 C.3     1  UNL1        0.1422
     14 N         142.0027  145.2566  160.9818 N.am    1  UNL1       -0.2629
     15 C         141.5012  144.8836  159.6181 C.2     1  UNL1        0.3085
     16 O         140.6294  143.6754  159.4442 O.2     1  UNL1       -0.2521
     17 N         141.8716  145.7188  158.4285 N.am    1  UNL1       -0.2680
     18 H         142.5749  146.0496  161.0959 H       1  UNL1        0.1569
     19 H         142.4437  146.5118  158.5427 H       1  UNL1        0.1564
     20 C         141.3701  145.3459  157.0649 C.ar    1  UNL1        0.0516
     21 C         140.1191  145.9755  156.5278 C.ar    1  UNL1        0.0156
     22 C         139.6177  145.6026  155.1642 C.ar    1  UNL1        0.0127
     23 C         140.3673  144.6001  154.3377 C.ar    1  UNL1        0.0578
     24 CL        139.8658  144.2272  152.9740 Cl      1  UNL1       -0.0822
     25 C         141.6183  143.9704  154.8748 C.ar    1  UNL1        0.0127
     26 C         142.1197  144.3434  156.2384 C.ar    1  UNL1        0.0156
     27 N         137.6878  144.4882  162.5973 N.am    1  UNL1       -0.3253
     28 C         139.0466  145.0745  162.3522 C.2     1  UNL1        0.2442
     29 O         139.1785  146.3975  161.6580 O.2     1  UNL1       -0.2703
     30 H         136.8826  144.9718  162.3025 H       1  UNL1        0.1453
     31 H         137.6013  143.6198  163.0529 H       1  UNL1        0.1453
@<TRIPOS>UNITY_ATOM_ATTR
8 1
charge 1
@<TRIPOS>BOND
     1    27    28   am
     2    28    29    2
     3    28     1    1
     4     1     2   ar
     5     2    14    1
     6    14    15   am
     7    15    16    2
     8    15    17   am
     9    17    20    1
    10    20    21   ar
    11    21    22   ar
    12    22    23   ar
    13    23    24    1
    14    23    25   ar
    15    25    26   ar
    16     2     3   ar
    17     3     4   ar
    18     4     5   ar
    19     5     6    1
    20     6     7    1
    21     7     8    1
    22     8     9    1
    23     9    10    1
    24    10    11    1
    25    11    12    1
    26     8    13    1
    27     5     1   ar
    28    12     8    1
    29    26    20   ar
    30    13     4    1
    31    27    30    1
    32    27    31    1
    33    14    18    1
    34    17    19    1
@<TRIPOS>MOLECULE
*****
 31 34 0 0 0
SMALL
GASTEIGER

@<TRIPOS>ATOM
      1 C         142.7054  143.7890  163.8889 C.ar    1  UNL1        0.0694
      2 C         141.3874  144.4086  163.5296 C.ar    1  UNL1        0.0858
      3 S         140.3585  143.9028  164.4968 S.2     1  UNL1       -0.0709
      4 C         141.0406  142.9707  165.4539 C.ar    1  UNL1        0.0598
      5 C         142.4911  142.9003  165.0782 C.ar    1  UNL1       -0.0026
      6 C         143.4292  142.0362  165.8675 C.3     1  UNL1        0.0879
      7 C         142.9169  141.2424  167.0326 C.3     1  UNL1        0.1136
      8 N         141.4664  141.3127  167.4083 N.4     1  UNL1        0.3010
      9 C         140.0496  141.2826  167.8999 C.3     1  UNL1        0.1091
     10 C         139.9885  140.3609  169.0817 C.3     1  UNL1        0.0671
     11 C         141.3676  139.8214  169.3206 C.3     1  UNL1        0.0671
     12 C         142.2810  140.4096  168.2863 C.3     1  UNL1        0.1091
     13 C         140.5283  142.1768  166.6189 C.3     1  UNL1        0.1422
     14 N         141.1416  145.3658  162.4012 N.am    1  UNL1       -0.2629
     15 C         141.1845  144.8799  160.9827 C.2     1  UNL1        0.3085
     16 O         141.4733  143.4368  160.6927 O.2     1  UNL1       -0.2521
     17 N         140.9387  145.8371  159.8543 N.am    1  UNL1       -0.2680
     18 H         140.9520  146.3129  162.5916 H       1  UNL1        0.1569
     19 H         140.7491  146.7842  160.0447 H       1  UNL1        0.1564
     20 C         140.9816  145.3513  158.4358 C.ar    1  UNL1        0.0516
     21 C         139.9009  144.4483  157.9193 C.ar    1  UNL1        0.0156
     22 C         139.9439  143.9625  156.5008 C.ar    1  UNL1        0.0127
     23 C         141.0675  144.3796  155.5989 C.ar    1  UNL1        0.0578
     24 CL        141.1103  143.8938  154.1804 Cl      1  UNL1       -0.0822
     25 C         142.1482  145.2826  156.1154 C.ar    1  UNL1        0.0127
     26 C         142.1052  145.7684  157.5339 C.ar    1  UNL1        0.0156
     27 N         144.9538  142.8738  162.9627 N.am    1  UNL1       -0.3253
     28 C         144.0090  144.0179  163.1829 C.2     1  UNL1        0.2442
     29 O         144.3676  145.3909  162.6971 O.2     1  UNL1       -0.2703
     30 H         145.8093  143.0241  162.4993 H       1  UNL1        0.1453
     31 H         144.7183  141.9727  163.2816 H       1  UNL1        0.1453
@<TRIPOS>UNITY_ATOM_ATTR
8 1
charge 1
@<TRIPOS>BOND
     1    27    28   am
     2    28    29    2
     3    28     1    1
     4     1     2   ar
     5     2    14    1
     6    14    15   am
     7    15    16    2
     8    15    17   am
     9    17    20    1
    10    20    21   ar
    11    21    22   ar
    12    22    23   ar
    13    23    24    1
    14    23    25   ar
    15    25    26   ar
    16     2     3   ar
    17     3     4   ar
    18     4     5   ar
    19     5     6    1
    20     6     7    1
    21     7     8    1
    22     8     9    1
    23     9    10    1
    24    10    11    1
    25    11    12    1
    26     8    13    1
    27     5     1   ar
    28    12     8    1
    29    26    20   ar
    30    13     4    1
    31    27    30    1
    32    27    31    1
    33    14    18    1
    34    17    19    1
@<TRIPOS>MOLECULE
*****
 31 34 0 0 0
SMALL
GASTEIGER

@<TRIPOS>ATOM
      1 C         144.0824  141.1300  164.6982 C.ar    1  UNL1        0.0694
      2 C         143.8857  139.7172  164.2338 C.ar    1  UNL1        0.0858
      3 S         143.0905  138.9924  165.2789 S.2     1  UNL1       -0.0709
      4 C         142.7957  139.9571  166.3891 C.ar    1  UNL1        0.0598
      5 C         143.4087  141.2783  166.0302 C.ar    1  UNL1       -0.0026
      6 C         143.2743  142.4455  166.9626 C.3     1  UNL1        0.0879
      7 C         142.5269  142.2916  168.2540 C.3     1  UNL1        0.1136
      8 N         141.9139  140.9705  168.6129 N.4     1  UNL1        0.3010
      9 C         141.2510  139.7178  169.1041 C.3     1  UNL1        0.1091
     10 C         140.6255  140.0155  170.4346 C.3     1  UNL1        0.0671
     11 C         140.9019  141.4522  170.7657 C.3     1  UNL1        0.0671
     12 C         141.6981  142.0424  169.6398 C.3     1  UNL1        0.1091
     13 C         142.0483  139.8033  167.6805 C.3     1  UNL1        0.1422
     14 N         144.3948  139.1321  162.9499 N.am    1  UNL1       -0.2629
     15 C         143.6393  139.3539  161.6731 C.2     1  UNL1        0.3085
     16 O         142.3749  140.1607  161.6803 O.2     1  UNL1       -0.2521
     17 N         144.1485  138.7688  160.3892 N.am    1  UNL1       -0.2680
     18 H         145.2248  138.6026  162.9452 H       1  UNL1        0.1569
     19 H         144.9784  138.2393  160.3846 H       1  UNL1        0.1564
     20 C         143.3931  138.9905  159.1124 C.ar    1  UNL1        0.0516
     21 C         143.6241  140.2373  158.3112 C.ar    1  UNL1        0.0156
     22 C         142.8687  140.4590  157.0344 C.ar    1  UNL1        0.0127
     23 C         141.8824  139.4339  156.5589 C.ar    1  UNL1        0.0578
     24 CL        141.1270  139.6557  155.2820 Cl      1  UNL1       -0.0822
     25 C         141.6513  138.1871  157.3601 C.ar    1  UNL1        0.0127
     26 C         142.4067  137.9654  158.6369 C.ar    1  UNL1        0.0156
     27 N         146.2053  141.9435  163.4405 N.am    1  UNL1       -0.3253
     28 C         144.8228  142.2057  163.9600 C.2     1  UNL1        0.2442
     29 O         144.1805  143.5434  163.7413 O.2     1  UNL1       -0.2703
     30 H         146.6912  142.6494  162.9560 H       1  UNL1        0.1453
     31 H         146.6268  141.0654  163.5841 H       1  UNL1        0.1453
@<TRIPOS>UNITY_ATOM_ATTR
8 1
charge 1
@<TRIPOS>BOND
     1    27    28   am
     2    28    29    2
     3    28     1    1
     4     1     2   ar
     5     2    14    1
     6    14    15   am
     7    15    16    2
     8    15    17   am
     9    17    20    1
    10    20    21   ar
    11    21    22   ar
    12    22    23   ar
    13    23    24    1
    14    23    25   ar
    15    25    26   ar
    16     2     3   ar
    17     3     4   ar
    18     4     5   ar
    19     5     6    1
    20     6     7    1
    21     7     8    1
    22     8     9    1
    23     9    10    1
    24    10    11    1
    25    11    12    1
    26     8    13    1
    27     5     1   ar
    28    12     8    1
    29    26    20   ar
    30    13     4    1
    31    27    30    1
    32    27    31    1
    33    14    18    1
    34    17    19    1
@<TRIPOS>MOLECULE
*****
 31 34 0 0 0
SMALL
GASTEIGER

@<TRIPOS>ATOM
      1 C         139.3595  140.4158  163.4062 C.ar    1  UNL1        0.0694
      2 C         140.6452  140.6103  162.6584 C.ar    1  UNL1        0.0858
      3 S         141.7667  140.6008  163.6544 S.2     1  UNL1       -0.0709
      4 C         141.1741  140.4005  165.0178 C.ar    1  UNL1        0.0598
      5 C         139.6864  140.2861  164.8644 C.ar    1  UNL1       -0.0026
      6 C         138.8216  140.0786  166.0723 C.3     1  UNL1        0.0879
      7 C         139.4445  139.9856  167.4337 C.3     1  UNL1        0.1136
      8 N         140.9323  140.0999  167.5871 N.4     1  UNL1        0.3010
      9 C         142.3973  140.1955  167.8947 C.3     1  UNL1        0.1091
     10 C         142.5699  140.0496  169.3776 C.3     1  UNL1        0.0671
     11 C         141.2117  139.8638  169.9864 C.3     1  UNL1        0.0671
     12 C         140.1995  139.8949  168.8798 C.3     1  UNL1        0.1091
     13 C         141.7970  140.3074  166.3792 C.3     1  UNL1        0.1422
     14 N         140.7848  140.7838  161.1750 N.am    1  UNL1       -0.2629
     15 C         140.9223  139.5813  160.2889 C.2     1  UNL1        0.3085
     16 O         140.9200  138.2054  160.8862 O.2     1  UNL1       -0.2521
     17 N         141.0619  139.7548  158.8056 N.am    1  UNL1       -0.2680
     18 H         140.7863  141.6869  160.7830 H       1  UNL1        0.1569
     19 H         141.0634  140.6579  158.4136 H       1  UNL1        0.1564
     20 C         141.1993  138.5524  157.9194 C.ar    1  UNL1        0.0516
     21 C         140.0376  138.0979  157.0866 C.ar    1  UNL1        0.0156
     22 C         140.1750  136.8954  156.2004 C.ar    1  UNL1        0.0127
     23 C         141.4741  136.1475  156.1472 C.ar    1  UNL1        0.0578
     24 CL        141.6115  134.9451  155.2610 Cl      1  UNL1       -0.0822
     25 C         142.6359  136.6021  156.9800 C.ar    1  UNL1        0.0127
     26 C         142.4985  137.8045  157.8662 C.ar    1  UNL1        0.0156
     27 N         136.8968  141.2407  163.3361 N.am    1  UNL1       -0.3253
     28 C         137.9877  140.3606  162.8018 C.2     1  UNL1        0.2442
     29 O         137.7069  139.4254  161.6633 O.2     1  UNL1       -0.2703
     30 H         135.9965  141.2045  162.9394 H       1  UNL1        0.1453
     31 H         137.0811  141.8545  164.0834 H       1  UNL1        0.1453
@<TRIPOS>UNITY_ATOM_ATTR
8 1
charge 1
@<TRIPOS>BOND
     1    27    28   am
     2    28    29    2
     3    28     1    1
     4     1     2   ar
     5     2    14    1
     6    14    15   am
     7    15    16    2
     8    15    17   am
     9    17    20    1
    10    20    21   ar
    11    21    22   ar
    12    22    23   ar
    13    23    24    1
    14    23    25   ar
    15    25    26   ar
    16     2     3   ar
    17     3     4   ar
    18     4     5   ar
    19     5     6    1
    20     6     7    1
    21     7     8    1
    22     8     9    1
    23     9    10    1
    24    10    11    1
    25    11    12    1
    26     8    13    1
    27     5     1   ar
    28    12     8    1
    29    26    20   ar
    30    13     4    1
    31    27    30    1
    32    27    31    1
    33    14    18    1
    34    17    19    1
@<TRIPOS>MOLECULE
*****
 31 34 0 0 0
SMALL
GASTEIGER

@<TRIPOS>ATOM
      1 C         138.9708  141.6074  164.7122 C.ar    1  UNL1        0.0694
      2 C         139.2717  143.0351  164.3641 C.ar    1  UNL1        0.0858
      3 S         140.0236  143.6432  165.5108 S.2     1  UNL1       -0.0709
      4 C         140.1873  142.5912  166.5676 C.ar    1  UNL1        0.0598
      5 C         139.5367  141.3330  166.0740 C.ar    1  UNL1       -0.0026
      6 C         139.5436  140.1001  166.9283 C.3     1  UNL1        0.0879
      7 C         140.2011  140.1254  168.2763 C.3     1  UNL1        0.1136
      8 N         140.8518  141.3836  168.7699 N.4     1  UNL1        0.3010
      9 C         141.5389  142.5620  169.3937 C.3     1  UNL1        0.1091
     10 C         142.0494  142.1415  170.7400 C.3     1  UNL1        0.0671
     11 C         141.6778  140.7033  170.9483 C.3     1  UNL1        0.0671
     12 C         140.9376  140.2348  169.7307 C.3     1  UNL1        0.1091
     13 C         140.8449  142.6165  167.9156 C.3     1  UNL1        0.1422
     14 N         138.8881  143.7324  163.0926 N.am    1  UNL1       -0.2629
     15 C         139.7589  143.6089  161.8775 C.2     1  UNL1        0.3085
     16 O         141.0132  142.7882  161.9339 O.2     1  UNL1       -0.2521
     17 N         139.3753  144.3061  160.6060 N.am    1  UNL1       -0.2680
     18 H         138.0649  144.2710  163.0556 H       1  UNL1        0.1569
     19 H         138.5520  144.8447  160.5690 H       1  UNL1        0.1564
     20 C         140.2460  144.1827  159.3908 C.ar    1  UNL1        0.0516
     21 C         140.1050  142.9957  158.4846 C.ar    1  UNL1        0.0156
     22 C         140.9757  142.8723  157.2695 C.ar    1  UNL1        0.0127
     23 C         141.9873  143.9358  156.9605 C.ar    1  UNL1        0.0578
     24 CL        142.8580  143.8123  155.7453 Cl      1  UNL1       -0.0822
     25 C         142.1283  145.1228  157.8667 C.ar    1  UNL1        0.0127
     26 C         141.2576  145.2462  159.0818 C.ar    1  UNL1        0.0156
     27 N         136.9367  141.0195  163.2066 N.am    1  UNL1       -0.3253
     28 C         138.2335  140.6262  163.8497 C.2     1  UNL1        0.2442
     29 O         138.7930  139.2520  163.6305 O.2     1  UNL1       -0.2703
     30 H         136.4527  140.3756  162.6405 H       1  UNL1        0.1453
     31 H         136.5695  141.9216  163.3505 H       1  UNL1        0.1453
@<TRIPOS>UNITY_ATOM_ATTR
8 1
charge 1
@<TRIPOS>BOND
     1    27    28   am
     2    28    29    2
     3    28     1    1
     4     1     2   ar
     5     2    14    1
     6    14    15   am
     7    15    16    2
     8    15    17   am
     9    17    20    1
    10    20    21   ar
    11    21    22   ar
    12    22    23   ar
    13    23    24    1
    14    23    25   ar
    15    25    26   ar
    16     2     3   ar
    17     3     4   ar
    18     4     5   ar
    19     5     6    1
    20     6     7    1
    21     7     8    1
    22     8     9    1
    23     9    10    1
    24    10    11    1
    25    11    12    1
    26     8    13    1
    27     5     1   ar
    28    12     8    1
    29    26    20   ar
    30    13     4    1
    31    27    30    1
    32    27    31    1
    33    14    18    1
    34    17    19    1
@<TRIPOS>MOLECULE
*****
 31 34 0 0 0
SMALL
GASTEIGER

@<TRIPOS>ATOM
      1 C         143.4758  141.1804  162.0052 C.ar    1  UNL1        0.0694
      2 C         143.0328  140.9784  160.5863 C.ar    1  UNL1        0.0858
      3 S         141.6662  141.5787  160.4376 S.2     1  UNL1       -0.0709
      4 C         141.2647  142.1516  161.7646 C.ar    1  UNL1        0.0598
      5 C         142.3831  141.9054  162.7333 C.ar    1  UNL1       -0.0026
      6 C         142.2620  142.3732  164.1533 C.3     1  UNL1        0.0879
      7 C         141.0224  143.0873  164.6046 C.3     1  UNL1        0.1136
      8 N         139.9040  143.3335  163.6358 N.4     1  UNL1        0.3010
      9 C         138.7095  143.6496  162.7853 C.3     1  UNL1        0.1091
     10 C         137.7086  144.3683  163.6407 C.3     1  UNL1        0.0671
     11 C         138.2844  144.4962  165.0199 C.3     1  UNL1        0.0671
     12 C         139.6412  143.8567  165.0169 C.3     1  UNL1        0.1091
     13 C         140.0251  142.8656  162.2158 C.3     1  UNL1        0.1422
     14 N         143.8184  140.2960  159.5060 N.am    1  UNL1       -0.2629
     15 C         144.3731  141.0946  158.3637 C.2     1  UNL1        0.3085
     16 O         144.1422  142.5754  158.3019 O.2     1  UNL1       -0.2521
     17 N         145.1587  140.4122  157.2833 N.am    1  UNL1       -0.2680
     18 H         143.9699  139.3241  159.5466 H       1  UNL1        0.1569
     19 H         145.3102  139.4403  157.3240 H       1  UNL1        0.1564
     20 C         145.7134  141.2107  156.1411 C.ar    1  UNL1        0.0516
     21 C         146.9251  142.0708  156.3460 C.ar    1  UNL1        0.0156
     22 C         147.4798  142.8692  155.2037 C.ar    1  UNL1        0.0127
     23 C         146.8228  142.8076  153.8567 C.ar    1  UNL1        0.0578
     24 CL        147.3776  143.6061  152.7144 Cl      1  UNL1       -0.0822
     25 C         145.6111  141.9475  153.6518 C.ar    1  UNL1        0.0127
     26 C         145.0564  141.1491  154.7940 C.ar    1  UNL1        0.0156
     27 N         144.9356  139.3340  163.1054 N.am    1  UNL1       -0.3253
     28 C         144.7823  140.7353  162.5927 C.2     1  UNL1        0.2442
     29 O         145.9355  141.6916  162.6673 O.2     1  UNL1       -0.2703
     30 H         145.7930  139.0419  163.4910 H       1  UNL1        0.1453
     31 H         144.1787  138.7064  163.0564 H       1  UNL1        0.1453
@<TRIPOS>UNITY_ATOM_ATTR
8 1
charge 1
@<TRIPOS>BOND
     1    27    28   am
     2    28    29    2
     3    28     1    1
     4     1     2   ar
     5     2    14    1
     6    14    15   am
     7    15    16    2
     8    15    17   am
     9    17    20    1
    10    20    21   ar
    11    21    22   ar
    12    22    23   ar
    13    23    24    1
    14    23    25   ar
    15    25    26   ar
    16     2     3   ar
    17     3     4   ar
    18     4     5   ar
    19     5     6    1
    20     6     7    1
    21     7     8    1
    22     8     9    1
    23     9    10    1
    24    10    11    1
    25    11    12    1
    26     8    13    1
    27     5     1   ar
    28    12     8    1
    29    26    20   ar
    30    13     4    1
    31    27    30    1
    32    27    31    1
    33    14    18    1
    34    17    19    1
@<TRIPOS>MOLECULE
*****
 31 34 0 0 0
SMALL
GASTEIGER

@<TRIPOS>ATOM
      1 C         142.7802  140.1991  161.3022 C.ar    1  UNL1        0.0694
      2 C         142.3985  140.3331  159.8577 C.ar    1  UNL1        0.0858
      3 S         141.2193  141.2563  159.7736 S.2     1  UNL1       -0.0709
      4 C         140.8721  141.6928  161.1662 C.ar    1  UNL1        0.0598
      5 C         141.8368  141.0395  162.1108 C.ar    1  UNL1       -0.0026
      6 C         141.7316  141.2942  163.5853 C.3     1  UNL1        0.0879
      7 C         140.6617  142.2022  164.1151 C.3     1  UNL1        0.1136
      8 N         139.6969  142.8556  163.1704 N.4     1  UNL1        0.3010
      9 C         138.6666  143.5755  162.3518 C.3     1  UNL1        0.1091
     10 C         137.8024  144.3680  163.2873 C.3     1  UNL1        0.0671
     11 C         138.2986  144.1378  164.6840 C.3     1  UNL1        0.0671
     12 C         139.4695  143.2031  164.6118 C.3     1  UNL1        0.1091
     13 C         139.8022  142.6009  161.6959 C.3     1  UNL1        0.1422
     14 N         143.0770  139.6618  158.7006 N.am    1  UNL1       -0.2629
     15 C         142.5787  138.3365  158.2051 C.2     1  UNL1        0.3085
     16 O         141.4020  137.6827  158.8667 O.2     1  UNL1       -0.2521
     17 N         143.2571  137.6652  157.0479 N.am    1  UNL1       -0.2680
     18 H         143.8494  140.0909  158.2663 H       1  UNL1        0.1569
     19 H         144.0295  138.0944  156.6137 H       1  UNL1        0.1564
     20 C         142.7589  136.3400  156.5524 C.ar    1  UNL1        0.0516
     21 C         141.7074  136.2861  155.4840 C.ar    1  UNL1        0.0156
     22 C         141.2092  134.9609  154.9884 C.ar    1  UNL1        0.0127
     23 C         141.7624  133.6897  155.5612 C.ar    1  UNL1        0.0578
     24 CL        141.2641  132.3645  155.0656 Cl      1  UNL1       -0.0822
     25 C         142.8138  133.7437  156.6296 C.ar    1  UNL1        0.0127
     26 C         143.3121  135.0689  157.1252 C.ar    1  UNL1        0.0156
     27 N         144.8620  139.9604  162.8383 N.am    1  UNL1       -0.3253
     28 C         143.9074  139.3702  161.8431 C.2     1  UNL1        0.2442
     29 O         144.0799  137.9513  161.3886 O.2     1  UNL1       -0.2703
     30 H         145.6018  139.4164  163.1933 H       1  UNL1        0.1453
     31 H         144.7487  140.8918  163.1366 H       1  UNL1        0.1453
@<TRIPOS>UNITY_ATOM_ATTR
8 1
charge 1
@<TRIPOS>BOND
     1    27    28   am
     2    28    29    2
     3    28     1    1
     4     1     2   ar
     5     2    14    1
     6    14    15   am
     7    15    16    2
     8    15    17   am
     9    17    20    1
    10    20    21   ar
    11    21    22   ar
    12    22    23   ar
    13    23    24    1
    14    23    25   ar
    15    25    26   ar
    16     2     3   ar
    17     3     4   ar
    18     4     5   ar
    19     5     6    1
    20     6     7    1
    21     7     8    1
    22     8     9    1
    23     9    10    1
    24    10    11    1
    25    11    12    1
    26     8    13    1
    27     5     1   ar
    28    12     8    1
    29    26    20   ar
    30    13     4    1
    31    27    30    1
    32    27    31    1
    33    14    18    1
    34    17    19    1
@<TRIPOS>MOLECULE
*****
 31 34 0 0 0
SMALL
GASTEIGER

@<TRIPOS>ATOM
      1 C         142.1698  139.4088  163.2913 C.ar    1  UNL1        0.0694
      2 C         141.9674  140.7487  162.6480 C.ar    1  UNL1        0.0858
      3 S         142.0050  141.7909  163.7262 S.2     1  UNL1       -0.0709
      4 C         142.2307  141.0950  165.0358 C.ar    1  UNL1        0.0598
      5 C         142.3325  139.6228  164.7670 C.ar    1  UNL1       -0.0026
      6 C         142.5603  138.6674  165.9007 C.3     1  UNL1        0.0879
      7 C         142.6862  139.1843  167.3033 C.3     1  UNL1        0.1136
      8 N         142.5844  140.6564  167.5721 N.4     1  UNL1        0.3010
      9 C         142.5044  142.0941  167.9924 C.3     1  UNL1        0.1091
     10 C         142.6830  142.1524  169.4806 C.3     1  UNL1        0.0671
     11 C         142.8733  140.7509  169.9800 C.3     1  UNL1        0.0671
     12 C         142.8124  139.8263  168.8004 C.3     1  UNL1        0.1091
     13 C         142.3566  141.6118  166.4383 C.3     1  UNL1        0.1422
     14 N         141.7632  141.0019  161.1837 N.am    1  UNL1       -0.2629
     15 C         142.9411  141.0253  160.2553 C.2     1  UNL1        0.3085
     16 O         144.3231  140.7954  160.7911 O.2     1  UNL1       -0.2521
     17 N         142.7369  141.2785  158.7910 N.am    1  UNL1       -0.2680
     18 H         140.8561  141.1528  160.8320 H       1  UNL1        0.1569
     19 H         141.8298  141.4294  158.4393 H       1  UNL1        0.1564
     20 C         143.9148  141.3019  157.8625 C.ar    1  UNL1        0.0516
     21 C         144.9059  142.4253  157.9366 C.ar    1  UNL1        0.0156
     22 C         146.0838  142.4487  157.0081 C.ar    1  UNL1        0.0127
     23 C         146.2704  141.3487  156.0055 C.ar    1  UNL1        0.0578
     24 CL        147.4483  141.3722  155.0770 Cl      1  UNL1       -0.0822
     25 C         145.2793  140.2253  155.9314 C.ar    1  UNL1        0.0127
     26 C         144.1014  140.2019  156.8599 C.ar    1  UNL1        0.0156
     27 N         143.3860  137.7196  161.7363 N.am    1  UNL1       -0.3253
     28 C         142.2036  138.0868  162.5831 C.2     1  UNL1        0.2442
     29 O         141.0549  137.1323  162.7218 O.2     1  UNL1       -0.2703
     30 H         143.4081  136.8521  161.2715 H       1  UNL1        0.1453
     31 H         144.1398  138.3462  161.6453 H       1  UNL1        0.1453
@<TRIPOS>UNITY_ATOM_ATTR
8 1
charge 1
@<TRIPOS>BOND
     1    27    28   am
     2    28    29    2
     3    28     1    1
     4     1     2   ar
     5     2    14    1
     6    14    15   am
     7    15    16    2
     8    15    17   am
     9    17    20    1
    10    20    21   ar
    11    21    22   ar
    12    22    23   ar
    13    23    24    1
    14    23    25   ar
    15    25    26   ar
    16     2     3   ar
    17     3     4   ar
    18     4     5   ar
    19     5     6    1
    20     6     7    1
    21     7     8    1
    22     8     9    1
    23     9    10    1
    24    10    11    1
    25    11    12    1
    26     8    13    1
    27     5     1   ar
    28    12     8    1
    29    26    20   ar
    30    13     4    1
    31    27    30    1
    32    27    31    1
    33    14    18    1
    34    17    19    1
