@<TRIPOS>MOLECULE
*****
 40 46 0 0 0
SMALL
GASTEIGER

@<TRIPOS>ATOM
      1 C         137.6975  139.4609  161.7295 C.3     1  UNL1        0.0700
      2 C         138.3215  138.1640  162.1522 C.3     1  UNL1        0.0193
      3 C         138.8982  138.0229  163.5297 C.3     1  UNL1        0.0287
      4 C         138.8510  139.1789  164.4846 C.3     1  UNL1        0.0955
      5 C         138.2271  140.4758  164.0619 C.3     1  UNL1        0.0287
      6 C         137.6504  140.6168  162.6844 C.3     1  UNL1        0.0193
      7 O         138.5220  139.3037  163.7402 O.3     1  UNL1       -0.3571
      8 C         138.0005  139.4313  162.4947 C.3     1  UNL1        0.1562
      9 N         137.1208  139.6020  160.3520 N.3     1  UNL1       -0.2926
     10 H         136.8925  138.6613  160.0306 H       1  UNL1        0.1236
     11 C         137.9267  140.2477  159.2641 C.3     1  UNL1        0.1152
     12 O         141.8716  134.9720  155.0980 O.2     1  UNL1       -0.2707
     13 C         141.8600  136.1243  156.0584 C.2     1  UNL1        0.2718
     14 C         143.1519  136.6701  156.5904 C.3     1  UNL1        0.2898
     15 O         143.1404  137.8224  157.5508 O.3     1  UNL1       -0.4628
     16 C         141.8370  138.4287  157.9791 C.ar    1  UNL1        0.1708
     17 C         141.8254  139.5809  158.9394 C.ar    1  UNL1        0.0411
     18 C         140.5220  140.1872  159.3678 C.ar    1  UNL1        0.0193
     19 C         139.2301  139.6413  158.8357 C.ar    1  UNL1        0.0765
     20 N         139.2417  138.4891  157.8754 N.ar    1  UNL1       -0.2304
     21 C         140.5451  137.8828  157.4471 C.ar    1  UNL1        0.1682
     22 N         140.5566  136.7306  156.4867 N.am    1  UNL1       -0.2639
     23 H         139.7087  136.3723  156.1376 H       1  UNL1        0.1565
     24 C         139.4278  139.0378  165.8620 C.3     1  UNL1        0.0603
     25 C         140.5304  139.9505  166.3106 C.3     1  UNL1        0.1322
     26 O         141.0822  139.7006  164.9383 O.3     1  UNL1       -0.3806
     27 C         141.7483  140.8110  166.4723 C.3     1  UNL1        0.1401
     28 N         141.7188  141.4018  167.8507 N.ar    1  UNL1       -0.2915
     29 C         142.6578  142.3269  168.5665 C.ar    1  UNL1        0.2611
     30 O         143.8941  142.8222  167.8763 O.2     1  UNL1       -0.2670
     31 C         142.3607  142.7566  169.9725 C.ar    1  UNL1        0.0623
     32 C         141.1244  142.2613  170.6628 C.ar    1  UNL1        0.0254
     33 C         140.1854  141.3363  169.9470 C.ar    1  UNL1        0.0971
     34 N         138.8944  140.6929  170.3827 N.ar    1  UNL1       -0.2415
     35 C         138.0531  139.7768  169.5443 C.ar    1  UNL1        0.1100
     36 C         138.4799  139.4352  168.1475 C.ar    1  UNL1        0.0764
     37 CL        137.6385  138.5191  167.3091 Cl      1  UNL1       -0.0808
     38 C         139.7481  140.0095  167.5891 C.ar    1  UNL1        0.0331
     39 C         140.4826  140.9065  168.5409 C.ar    1  UNL1        0.0792
     40 H         141.9124  140.1903  164.8296 H       1  UNL1        0.2108
@<TRIPOS>BOND
     1    12    13    2
     2    13    14    1
     3    14    15    1
     4    15    16    1
     5    16    17   ar
     6    17    18   ar
     7    18    19   ar
     8    19    11    1
     9    11     9    1
    10     9     1    1
    11     1     2    1
    12     2     3    1
    13     3     4    1
    14     4    24    1
    15    24    25    1
    16    25    26    1
    17    25    27    1
    18    27    28    1
    19    28    29   ar
    20    29    30    2
    21    29    31   ar
    22    31    32   ar
    23    32    33   ar
    24    33    34   ar
    25    34    35   ar
    26    35    36   ar
    27    36    37    1
    28    36    38   ar
    29    38    39   ar
    30     4     5    1
    31     5     6    1
    32     4     7    1
    33     7     8    1
    34    19    20   ar
    35    20    21   ar
    36    21    22    1
    37    22    13   am
    38    21    16   ar
    39     6     1    1
    40     8     1    1
    41    38    25    1
    42    39    28   ar
    43    39    33   ar
    44     9    10    1
    45    26    40    1
    46    22    23    1
@<TRIPOS>MOLECULE
*****
 40 46 0 0 0
SMALL
GASTEIGER

@<TRIPOS>ATOM
      1 C         137.7779  139.4758  161.6791 C.3     1  UNL1        0.0700
      2 C         138.4636  138.2053  162.0859 C.3     1  UNL1        0.0193
      3 C         139.0101  138.0597  163.4752 C.3     1  UNL1        0.0287
      4 C         138.8710  139.1847  164.4577 C.3     1  UNL1        0.0955
      5 C         138.1853  140.4552  164.0508 C.3     1  UNL1        0.0287
      6 C         137.6388  140.6008  162.6615 C.3     1  UNL1        0.0193
      7 O         138.5555  139.3109  163.7077 O.3     1  UNL1       -0.3571
      8 C         138.0613  139.4426  162.4515 C.3     1  UNL1        0.1562
      9 N         137.2313  139.6214  160.2898 N.3     1  UNL1       -0.2926
     10 H         137.0727  138.6782  159.9354 H       1  UNL1        0.1236
     11 C         138.0238  140.3491  159.2446 C.3     1  UNL1        0.1152
     12 O         143.8330  144.6139  162.2138 O.2     1  UNL1       -0.2707
     13 C         143.3644  143.4276  161.4244 C.2     1  UNL1        0.2718
     14 C         144.3636  142.4766  160.8355 C.3     1  UNL1        0.2898
     15 O         143.8952  141.2902  160.0461 O.3     1  UNL1       -0.4628
     16 C         142.4273  141.0549  159.8457 C.ar    1  UNL1        0.1708
     17 C         141.9588  139.8686  159.0564 C.ar    1  UNL1        0.0411
     18 C         140.4909  139.6334  158.8560 C.ar    1  UNL1        0.0193
     19 C         139.4917  140.5844  159.4450 C.ar    1  UNL1        0.0765
     20 N         139.9602  141.7707  160.2344 N.ar    1  UNL1       -0.2304
     21 C         141.4281  142.0060  160.4347 C.ar    1  UNL1        0.1682
     22 N         141.8965  143.1923  161.2241 N.am    1  UNL1       -0.2639
     23 H         141.2407  143.8165  161.6106 H       1  UNL1        0.1565
     24 C         139.4175  139.0391  165.8470 C.3     1  UNL1        0.0603
     25 C         140.5149  139.9456  166.3200 C.3     1  UNL1        0.1322
     26 O         141.0832  139.7124  164.9516 O.3     1  UNL1       -0.3806
     27 C         141.7312  140.8034  166.5070 C.3     1  UNL1        0.1401
     28 N         141.6851  141.3773  167.8922 N.ar    1  UNL1       -0.2915
     29 C         142.6158  142.2930  168.6306 C.ar    1  UNL1        0.2611
     30 O         143.8605  142.7961  167.9616 O.2     1  UNL1       -0.2670
     31 C         142.3018  142.7055  170.0381 C.ar    1  UNL1        0.0623
     32 C         141.0571  142.2024  170.7072 C.ar    1  UNL1        0.0254
     33 C         140.1264  141.2868  169.9687 C.ar    1  UNL1        0.0971
     34 N         138.8300  140.6387  170.3808 N.ar    1  UNL1       -0.2415
     35 C         137.9985  139.7335  169.5211 C.ar    1  UNL1        0.1100
     36 C         138.4421  139.4088  168.1254 C.ar    1  UNL1        0.0764
     37 CL        137.6107  138.5036  167.2657 Cl      1  UNL1       -0.0808
     38 C         139.7173  139.9894  167.5896 C.ar    1  UNL1        0.0331
     39 C         140.4405  140.8742  168.5612 C.ar    1  UNL1        0.0792
     40 H         141.9149  140.2029  164.8590 H       1  UNL1        0.2108
@<TRIPOS>BOND
     1    12    13    2
     2    13    14    1
     3    14    15    1
     4    15    16    1
     5    16    17   ar
     6    17    18   ar
     7    18    19   ar
     8    19    11    1
     9    11     9    1
    10     9     1    1
    11     1     2    1
    12     2     3    1
    13     3     4    1
    14     4    24    1
    15    24    25    1
    16    25    26    1
    17    25    27    1
    18    27    28    1
    19    28    29   ar
    20    29    30    2
    21    29    31   ar
    22    31    32   ar
    23    32    33   ar
    24    33    34   ar
    25    34    35   ar
    26    35    36   ar
    27    36    37    1
    28    36    38   ar
    29    38    39   ar
    30     4     5    1
    31     5     6    1
    32     4     7    1
    33     7     8    1
    34    19    20   ar
    35    20    21   ar
    36    21    22    1
    37    22    13   am
    38    21    16   ar
    39     6     1    1
    40     8     1    1
    41    38    25    1
    42    39    28   ar
    43    39    33   ar
    44     9    10    1
    45    26    40    1
    46    22    23    1
@<TRIPOS>MOLECULE
*****
 40 46 0 0 0
SMALL
GASTEIGER

@<TRIPOS>ATOM
      1 C         138.0669  139.5691  161.2363 C.3     1  UNL1        0.0700
      2 C         138.3535  140.7417  162.1267 C.3     1  UNL1        0.0193
      3 C         139.1402  140.5502  163.3893 C.3     1  UNL1        0.0287
      4 C         139.6405  139.1858  163.7616 C.3     1  UNL1        0.0955
      5 C         139.3540  138.0132  162.8712 C.3     1  UNL1        0.0287
      6 C         138.5672  138.2049  161.6086 C.3     1  UNL1        0.0193
      7 O         139.2136  139.2416  163.0598 O.3     1  UNL1       -0.3571
      8 C         138.5022  139.4148  161.9181 C.3     1  UNL1        0.1562
      9 N         137.2801  139.7607  159.9737 N.3     1  UNL1       -0.2926
     10 H         136.8602  138.8588  159.7487 H       1  UNL1        0.1236
     11 C         137.9651  140.2420  158.7290 C.3     1  UNL1        0.1152
     12 O         142.0950  134.6343  155.2292 O.2     1  UNL1       -0.2707
     13 C         142.0422  135.9227  155.9958 C.2     1  UNL1        0.2718
     14 C         143.3131  136.6299  156.3623 C.3     1  UNL1        0.2898
     15 O         143.2603  137.9182  157.1289 O.3     1  UNL1       -0.4628
     16 C         141.9365  138.4991  157.5289 C.ar    1  UNL1        0.1708
     17 C         141.8837  139.7873  158.2955 C.ar    1  UNL1        0.0411
     18 C         140.5598  140.3683  158.6955 C.ar    1  UNL1        0.0193
     19 C         139.2889  139.6610  158.3290 C.ar    1  UNL1        0.0765
     20 N         139.3417  138.3727  157.5624 N.ar    1  UNL1       -0.2304
     21 C         140.6656  137.7918  157.1624 C.ar    1  UNL1        0.1682
     22 N         140.7183  136.5036  156.3958 N.am    1  UNL1       -0.2639
     23 H         139.8841  136.0394  156.1552 H       1  UNL1        0.1565
     24 C         140.4273  138.9942  165.0242 C.3     1  UNL1        0.0603
     25 C         139.8291  139.3756  166.3459 C.3     1  UNL1        0.1322
     26 O         138.7488  138.4103  165.9575 O.3     1  UNL1       -0.3806
     27 C         139.0051  139.5552  167.5863 C.3     1  UNL1        0.1401
     28 N         139.7012  140.5519  168.4650 N.ar    1  UNL1       -0.2915
     29 C         139.3551  141.1184  169.8101 C.ar    1  UNL1        0.2611
     30 O         138.1008  140.6820  170.5074 O.2     1  UNL1       -0.2670
     31 C         140.2632  142.1213  170.4577 C.ar    1  UNL1        0.0623
     32 C         141.5174  142.5577  169.7603 C.ar    1  UNL1        0.0254
     33 C         141.8636  141.9912  168.4153 C.ar    1  UNL1        0.0971
     34 N         143.0340  142.2404  167.4996 N.ar    1  UNL1       -0.2415
     35 C         143.2478  141.5901  166.1649 C.ar    1  UNL1        0.1100
     36 C         142.2481  140.6006  165.6441 C.ar    1  UNL1        0.0764
     37 CL        142.4618  139.9502  164.3094 Cl      1  UNL1       -0.0808
     38 C         141.0345  140.2613  166.4579 C.ar    1  UNL1        0.0331
     39 C         140.9555  140.9883  167.7676 C.ar    1  UNL1        0.0792
     40 H         138.0799  138.3741  166.6592 H       1  UNL1        0.2108
@<TRIPOS>BOND
     1    12    13    2
     2    13    14    1
     3    14    15    1
     4    15    16    1
     5    16    17   ar
     6    17    18   ar
     7    18    19   ar
     8    19    11    1
     9    11     9    1
    10     9     1    1
    11     1     2    1
    12     2     3    1
    13     3     4    1
    14     4    24    1
    15    24    25    1
    16    25    26    1
    17    25    27    1
    18    27    28    1
    19    28    29   ar
    20    29    30    2
    21    29    31   ar
    22    31    32   ar
    23    32    33   ar
    24    33    34   ar
    25    34    35   ar
    26    35    36   ar
    27    36    37    1
    28    36    38   ar
    29    38    39   ar
    30     4     5    1
    31     5     6    1
    32     4     7    1
    33     7     8    1
    34    19    20   ar
    35    20    21   ar
    36    21    22    1
    37    22    13   am
    38    21    16   ar
    39     6     1    1
    40     8     1    1
    41    38    25    1
    42    39    28   ar
    43    39    33   ar
    44     9    10    1
    45    26    40    1
    46    22    23    1
@<TRIPOS>MOLECULE
*****
 40 46 0 0 0
SMALL
GASTEIGER

@<TRIPOS>ATOM
      1 C         143.2099  139.2885  159.7423 C.3     1  UNL1        0.0700
      2 C         143.7911  138.2086  160.6061 C.3     1  UNL1        0.0193
      3 C         143.2974  138.0245  162.0105 C.3     1  UNL1        0.0287
      4 C         142.2225  138.9204  162.5512 C.3     1  UNL1        0.0955
      5 C         141.6413  140.0002  161.6874 C.3     1  UNL1        0.0287
      6 C         142.1351  140.1842  160.2829 C.3     1  UNL1        0.0193
      7 O         142.4608  139.0596  161.7754 O.3     1  UNL1       -0.3571
      8 C         142.9072  139.2260  160.5056 C.3     1  UNL1        0.1562
      9 N         143.7036  139.4726  158.3379 N.3     1  UNL1       -0.2926
     10 H         144.0323  140.4354  158.2651 H       1  UNL1        0.1236
     11 C         142.7769  139.2427  157.1810 C.3     1  UNL1        0.1152
     12 O         145.0871  131.8931  155.9987 O.2     1  UNL1       -0.2707
     13 C         144.0200  132.9456  155.9359 C.2     1  UNL1        0.2718
     14 C         142.6560  132.6004  155.4162 C.3     1  UNL1        0.2898
     15 O         141.5889  133.6527  155.3533 O.3     1  UNL1       -0.4628
     16 C         141.8859  135.0502  155.8102 C.ar    1  UNL1        0.1708
     17 C         140.8189  136.1025  155.7474 C.ar    1  UNL1        0.0411
     18 C         141.1159  137.5000  156.2043 C.ar    1  UNL1        0.0193
     19 C         142.4800  137.8452  156.7241 C.ar    1  UNL1        0.0765
     20 N         143.5470  136.7928  156.7869 N.ar    1  UNL1       -0.2304
     21 C         143.2500  135.3953  156.3300 C.ar    1  UNL1        0.1682
     22 N         144.3170  134.3431  156.3929 N.am    1  UNL1       -0.2639
     23 H         145.2123  134.5696  156.7340 H       1  UNL1        0.1565
     24 C         141.7288  138.7363  163.9556 C.3     1  UNL1        0.0603
     25 C         142.1815  139.6705  165.0382 C.3     1  UNL1        0.1322
     26 O         143.4128  139.8029  164.1919 O.3     1  UNL1       -0.3806
     27 C         142.8916  140.6325  165.9440 C.3     1  UNL1        0.1401
     28 N         142.0045  140.8993  167.1238 N.ar    1  UNL1       -0.2915
     29 C         142.1800  141.7650  168.3361 C.ar    1  UNL1        0.2611
     30 O         143.4384  142.5621  168.5127 O.2     1  UNL1       -0.2670
     31 C         141.0972  141.8337  169.3718 C.ar    1  UNL1        0.0623
     32 C         139.8388  141.0366  169.1952 C.ar    1  UNL1        0.0254
     33 C         139.6633  140.1709  167.9829 C.ar    1  UNL1        0.0971
     34 N         138.5286  139.2787  167.5507 N.ar    1  UNL1       -0.2415
     35 C         138.4953  138.4616  166.2932 C.ar    1  UNL1        0.1100
     36 C         139.6588  138.4937  165.3470 C.ar    1  UNL1        0.0764
     37 CL        139.6256  137.6767  164.0895 Cl      1  UNL1       -0.0808
     38 C         140.8555  139.3428  165.6583 C.ar    1  UNL1        0.0331
     39 C         140.7462  140.1022  166.9472 C.ar    1  UNL1        0.0792
     40 H         144.0347  140.4127  164.6190 H       1  UNL1        0.2108
@<TRIPOS>BOND
     1    12    13    2
     2    13    14    1
     3    14    15    1
     4    15    16    1
     5    16    17   ar
     6    17    18   ar
     7    18    19   ar
     8    19    11    1
     9    11     9    1
    10     9     1    1
    11     1     2    1
    12     2     3    1
    13     3     4    1
    14     4    24    1
    15    24    25    1
    16    25    26    1
    17    25    27    1
    18    27    28    1
    19    28    29   ar
    20    29    30    2
    21    29    31   ar
    22    31    32   ar
    23    32    33   ar
    24    33    34   ar
    25    34    35   ar
    26    35    36   ar
    27    36    37    1
    28    36    38   ar
    29    38    39   ar
    30     4     5    1
    31     5     6    1
    32     4     7    1
    33     7     8    1
    34    19    20   ar
    35    20    21   ar
    36    21    22    1
    37    22    13   am
    38    21    16   ar
    39     6     1    1
    40     8     1    1
    41    38    25    1
    42    39    28   ar
    43    39    33   ar
    44     9    10    1
    45    26    40    1
    46    22    23    1
@<TRIPOS>MOLECULE
*****
 40 46 0 0 0
SMALL
GASTEIGER

@<TRIPOS>ATOM
      1 C         144.3430  140.2343  157.5235 C.3     1  UNL1        0.0700
      2 C         143.5073  139.8589  158.7112 C.3     1  UNL1        0.0193
      3 C         143.3251  140.8324  159.8379 C.3     1  UNL1        0.0287
      4 C         143.9786  142.1812  159.7767 C.3     1  UNL1        0.0955
      5 C         144.8143  142.5566  158.5890 C.3     1  UNL1        0.0287
      6 C         144.9965  141.5831  157.4624 C.3     1  UNL1        0.0193
      7 O         144.1073  141.6814  159.1352 O.3     1  UNL1       -0.3571
      8 C         144.2721  140.8012  158.1166 C.3     1  UNL1        0.1562
      9 N         144.5253  139.2609  156.3969 N.3     1  UNL1       -0.2926
     10 H         145.1336  139.7119  155.7136 H       1  UNL1        0.1236
     11 C         143.3313  138.7524  155.6447 C.3     1  UNL1        0.1152
     12 O         144.9889  131.4492  157.8053 O.2     1  UNL1       -0.2707
     13 C         144.0481  132.4381  157.1830 C.2     1  UNL1        0.2718
     14 C         142.7192  131.9812  156.6585 C.3     1  UNL1        0.2898
     15 O         141.7783  132.9700  156.0362 O.3     1  UNL1       -0.4628
     16 C         142.1666  134.4156  155.9383 C.ar    1  UNL1        0.1708
     17 C         141.2259  135.4044  155.3160 C.ar    1  UNL1        0.0411
     18 C         141.6141  136.8499  155.2181 C.ar    1  UNL1        0.0193
     19 C         142.9431  137.3067  155.7426 C.ar    1  UNL1        0.0765
     20 N         143.8839  136.3179  156.3649 N.ar    1  UNL1       -0.2304
     21 C         143.4956  134.8724  156.4628 C.ar    1  UNL1        0.1682
     22 N         144.4364  133.8837  157.0851 N.am    1  UNL1       -0.2639
     23 H         145.3086  134.1835  157.4293 H       1  UNL1        0.1565
     24 C         143.7963  143.1546  160.9034 C.3     1  UNL1        0.0603
     25 C         142.4344  143.7061  161.2051 C.3     1  UNL1        0.1322
     26 O         142.4325  144.0710  159.7502 O.3     1  UNL1       -0.3806
     27 C         141.0721  144.3339  161.2028 C.3     1  UNL1        0.1401
     28 N         140.5168  144.2417  162.5932 N.ar    1  UNL1       -0.2915
     29 C         139.2149  144.6928  163.1859 C.ar    1  UNL1        0.2611
     30 O         138.1957  145.3776  162.3242 O.2     1  UNL1       -0.2670
     31 C         138.9321  144.4592  164.6403 C.ar    1  UNL1        0.0623
     32 C         139.9512  143.7744  165.5020 C.ar    1  UNL1        0.0254
     33 C         141.2531  143.3233  164.9093 C.ar    1  UNL1        0.0971
     34 N         142.4387  142.6241  165.5224 N.ar    1  UNL1       -0.2415
     35 C         143.6891  142.2309  164.7931 C.ar    1  UNL1        0.1100
     36 C         143.8303  142.5318  163.3304 C.ar    1  UNL1        0.0764
     37 CL        145.0807  142.1386  162.6011 Cl      1  UNL1       -0.0808
     38 C         142.7211  143.2260  162.5970 C.ar    1  UNL1        0.0331
     39 C         141.5360  143.5570  163.4549 C.ar    1  UNL1        0.0792
     40 H         141.5970  144.5111  159.5284 H       1  UNL1        0.2108
@<TRIPOS>BOND
     1    12    13    2
     2    13    14    1
     3    14    15    1
     4    15    16    1
     5    16    17   ar
     6    17    18   ar
     7    18    19   ar
     8    19    11    1
     9    11     9    1
    10     9     1    1
    11     1     2    1
    12     2     3    1
    13     3     4    1
    14     4    24    1
    15    24    25    1
    16    25    26    1
    17    25    27    1
    18    27    28    1
    19    28    29   ar
    20    29    30    2
    21    29    31   ar
    22    31    32   ar
    23    32    33   ar
    24    33    34   ar
    25    34    35   ar
    26    35    36   ar
    27    36    37    1
    28    36    38   ar
    29    38    39   ar
    30     4     5    1
    31     5     6    1
    32     4     7    1
    33     7     8    1
    34    19    20   ar
    35    20    21   ar
    36    21    22    1
    37    22    13   am
    38    21    16   ar
    39     6     1    1
    40     8     1    1
    41    38    25    1
    42    39    28   ar
    43    39    33   ar
    44     9    10    1
    45    26    40    1
    46    22    23    1
@<TRIPOS>MOLECULE
*****
 40 46 0 0 0
SMALL
GASTEIGER

@<TRIPOS>ATOM
      1 C         141.3807  139.1852  158.0630 C.3     1  UNL1        0.0700
      2 C         142.2017  139.7001  159.2079 C.3     1  UNL1        0.0193
      3 C         141.7617  139.4478  160.6195 C.3     1  UNL1        0.0287
      4 C         140.5006  138.6805  160.8863 C.3     1  UNL1        0.0955
      5 C         139.6796  138.1656  159.7414 C.3     1  UNL1        0.0287
      6 C         140.1197  138.4179  158.3297 C.3     1  UNL1        0.0193
      7 O         140.7013  138.7938  160.0958 O.3     1  UNL1       -0.3571
      8 C         141.0991  139.0220  158.8194 C.3     1  UNL1        0.1562
      9 N         141.8207  139.4375  156.6514 N.3     1  UNL1       -0.2926
     10 H         140.9810  139.4152  156.0727 H       1  UNL1        0.1236
     11 C         142.8183  138.5245  156.0023 C.3     1  UNL1        0.1152
     12 O         145.1881  131.3998  158.0937 O.2     1  UNL1       -0.2707
     13 C         144.1844  132.2903  157.4229 C.2     1  UNL1        0.2718
     14 C         142.9672  131.6962  156.7786 C.3     1  UNL1        0.2898
     15 O         141.9634  132.5866  156.1078 O.3     1  UNL1       -0.4628
     16 C         142.1772  134.0711  156.0814 C.ar    1  UNL1        0.1708
     17 C         141.1736  134.9615  155.4107 C.ar    1  UNL1        0.0411
     18 C         141.3873  136.4460  155.3843 C.ar    1  UNL1        0.0193
     19 C         142.6046  137.0400  156.0287 C.ar    1  UNL1        0.0765
     20 N         143.6082  136.1496  156.6994 N.ar    1  UNL1       -0.2304
     21 C         143.3945  134.6651  156.7258 C.ar    1  UNL1        0.1682
     22 N         144.3982  133.7748  157.3965 N.am    1  UNL1       -0.2639
     23 H         145.1971  134.1647  157.8194 H       1  UNL1        0.1565
     24 C         140.0606  138.4282  162.2979 C.3     1  UNL1        0.0603
     25 C         141.0824  138.2249  163.3771 C.3     1  UNL1        0.1322
     26 O         141.6312  137.1866  162.4439 O.3     1  UNL1       -0.3806
     27 C         142.2189  137.8045  164.2611 C.3     1  UNL1        0.1401
     28 N         142.1590  138.6255  165.5151 N.ar    1  UNL1       -0.2915
     29 C         143.0214  138.6481  166.7421 C.ar    1  UNL1        0.2611
     30 O         144.1950  137.7204  166.8512 O.2     1  UNL1       -0.2670
     31 C         142.7102  139.5985  167.8601 C.ar    1  UNL1        0.0623
     32 C         141.5366  140.5263  167.7510 C.ar    1  UNL1        0.0254
     33 C         140.6742  140.5037  166.5240 C.ar    1  UNL1        0.0971
     34 N         139.4553  141.3053  166.1470 N.ar    1  UNL1       -0.2415
     35 C         138.6872  141.1694  164.8658 C.ar    1  UNL1        0.1100
     36 C         139.1196  140.1696  163.8346 C.ar    1  UNL1        0.0764
     37 CL        138.3515  140.0337  162.5534 Cl      1  UNL1       -0.0808
     38 C         140.3200  139.3056  164.0846 C.ar    1  UNL1        0.0331
     39 C         140.9854  139.5533  165.4060 C.ar    1  UNL1        0.0792
     40 H         142.4110  136.7716  162.8445 H       1  UNL1        0.2108
@<TRIPOS>BOND
     1    12    13    2
     2    13    14    1
     3    14    15    1
     4    15    16    1
     5    16    17   ar
     6    17    18   ar
     7    18    19   ar
     8    19    11    1
     9    11     9    1
    10     9     1    1
    11     1     2    1
    12     2     3    1
    13     3     4    1
    14     4    24    1
    15    24    25    1
    16    25    26    1
    17    25    27    1
    18    27    28    1
    19    28    29   ar
    20    29    30    2
    21    29    31   ar
    22    31    32   ar
    23    32    33   ar
    24    33    34   ar
    25    34    35   ar
    26    35    36   ar
    27    36    37    1
    28    36    38   ar
    29    38    39   ar
    30     4     5    1
    31     5     6    1
    32     4     7    1
    33     7     8    1
    34    19    20   ar
    35    20    21   ar
    36    21    22    1
    37    22    13   am
    38    21    16   ar
    39     6     1    1
    40     8     1    1
    41    38    25    1
    42    39    28   ar
    43    39    33   ar
    44     9    10    1
    45    26    40    1
    46    22    23    1
@<TRIPOS>MOLECULE
*****
 40 46 0 0 0
SMALL
GASTEIGER

@<TRIPOS>ATOM
      1 C         142.4159  143.3051  161.1604 C.3     1  UNL1        0.0700
      2 C         143.5005  142.2900  161.3683 C.3     1  UNL1        0.0193
      3 C         143.5323  141.4733  162.6261 C.3     1  UNL1        0.0287
      4 C         142.4795  141.6718  163.6761 C.3     1  UNL1        0.0955
      5 C         141.3950  142.6869  163.4682 C.3     1  UNL1        0.0287
      6 C         141.3632  143.5035  162.2104 C.3     1  UNL1        0.0193
      7 O         142.4206  142.1428  163.0033 O.3     1  UNL1       -0.3571
      8 C         142.3918  142.8812  161.8660 C.3     1  UNL1        0.1562
      9 N         142.3841  144.1218  159.9026 N.3     1  UNL1       -0.2926
     10 H         142.0293  145.0432  160.1587 H       1  UNL1        0.1236
     11 C         141.5755  143.6578  158.7275 C.3     1  UNL1        0.1152
     12 O         137.9262  149.9317  155.8866 O.2     1  UNL1       -0.2707
     13 C         138.8662  148.7783  155.6961 C.2     1  UNL1        0.2718
     14 C         139.5295  148.5629  154.3682 C.3     1  UNL1        0.2898
     15 O         140.4695  147.4095  154.1776 O.3     1  UNL1       -0.4628
     16 C         140.7460  146.4716  155.3151 C.ar    1  UNL1        0.1708
     17 C         141.6859  145.3182  155.1246 C.ar    1  UNL1        0.0411
     18 C         141.9624  144.3803  156.2621 C.ar    1  UNL1        0.0193
     19 C         141.2990  144.5958  157.5901 C.ar    1  UNL1        0.0765
     20 N         140.3591  145.7491  157.7805 N.ar    1  UNL1       -0.2304
     21 C         140.0826  146.6870  156.6430 C.ar    1  UNL1        0.1682
     22 N         139.1427  147.8404  156.8336 N.am    1  UNL1       -0.2639
     23 H         138.7073  147.9818  157.7052 H       1  UNL1        0.1565
     24 C         142.5114  140.8551  164.9339 C.3     1  UNL1        0.0603
     25 C         142.6054  141.5352  166.2675 C.3     1  UNL1        0.1322
     26 O         143.8299  142.1721  165.6800 O.3     1  UNL1       -0.3806
     27 C         142.9554  142.3484  167.4783 C.3     1  UNL1        0.1401
     28 N         141.9277  142.0720  168.5354 N.ar    1  UNL1       -0.2915
     29 C         141.7616  142.5892  169.9335 C.ar    1  UNL1        0.2611
     30 O         142.7469  143.5733  170.4911 O.2     1  UNL1       -0.2670
     31 C         140.6104  142.1223  170.7741 C.ar    1  UNL1        0.0623
     32 C         139.6252  141.1382  170.2165 C.ar    1  UNL1        0.0254
     33 C         139.7912  140.6210  168.8184 C.ar    1  UNL1        0.0971
     34 N         138.9726  139.6462  168.0121 N.ar    1  UNL1       -0.2415
     35 C         139.2666  139.2194  166.6045 C.ar    1  UNL1        0.1100
     36 C         140.4610  139.7744  165.8866 C.ar    1  UNL1        0.0764
     37 CL        140.7551  139.3475  164.4790 Cl      1  UNL1       -0.0808
     38 C         141.3613  140.7561  166.5762 C.ar    1  UNL1        0.0331
     39 C         140.9425  141.0879  167.9778 C.ar    1  UNL1        0.0792
     40 H         144.2299  142.7671  166.3334 H       1  UNL1        0.2108
@<TRIPOS>BOND
     1    12    13    2
     2    13    14    1
     3    14    15    1
     4    15    16    1
     5    16    17   ar
     6    17    18   ar
     7    18    19   ar
     8    19    11    1
     9    11     9    1
    10     9     1    1
    11     1     2    1
    12     2     3    1
    13     3     4    1
    14     4    24    1
    15    24    25    1
    16    25    26    1
    17    25    27    1
    18    27    28    1
    19    28    29   ar
    20    29    30    2
    21    29    31   ar
    22    31    32   ar
    23    32    33   ar
    24    33    34   ar
    25    34    35   ar
    26    35    36   ar
    27    36    37    1
    28    36    38   ar
    29    38    39   ar
    30     4     5    1
    31     5     6    1
    32     4     7    1
    33     7     8    1
    34    19    20   ar
    35    20    21   ar
    36    21    22    1
    37    22    13   am
    38    21    16   ar
    39     6     1    1
    40     8     1    1
    41    38    25    1
    42    39    28   ar
    43    39    33   ar
    44     9    10    1
    45    26    40    1
    46    22    23    1
@<TRIPOS>MOLECULE
*****
 40 46 0 0 0
SMALL
GASTEIGER

@<TRIPOS>ATOM
      1 C         142.2739  137.8619  157.8145 C.3     1  UNL1        0.0700
      2 C         142.5691  138.2680  159.2280 C.3     1  UNL1        0.0193
      3 C         141.4743  138.8147  160.0955 C.3     1  UNL1        0.0287
      4 C         140.0842  138.9552  159.5494 C.3     1  UNL1        0.0955
      5 C         139.7890  138.5491  158.1360 C.3     1  UNL1        0.0287
      6 C         140.8839  138.0024  157.2685 C.3     1  UNL1        0.0193
      7 O         140.6514  138.6506  159.0361 O.3     1  UNL1       -0.3571
      8 C         141.6413  138.1563  158.2518 C.3     1  UNL1        0.1562
      9 N         143.3687  137.3152  156.9470 N.3     1  UNL1       -0.2926
     10 H         143.9146  138.1138  156.6235 H       1  UNL1        0.1236
     11 C         143.0285  136.5029  155.7328 C.3     1  UNL1        0.1152
     12 O         145.1385  129.6549  158.7993 O.2     1  UNL1       -0.2707
     13 C         144.2469  130.4542  157.8957 C.2     1  UNL1        0.2718
     14 C         143.1673  129.7700  157.1108 C.3     1  UNL1        0.2898
     15 O         142.2757  130.5692  156.2072 O.3     1  UNL1       -0.4628
     16 C         142.4639  132.0526  156.0886 C.ar    1  UNL1        0.1708
     17 C         141.5725  132.8519  155.1851 C.ar    1  UNL1        0.0411
     18 C         141.7607  134.3353  155.0665 C.ar    1  UNL1        0.0193
     19 C         142.8403  135.0194  155.8515 C.ar    1  UNL1        0.0765
     20 N         143.7318  134.2202  156.7550 N.ar    1  UNL1       -0.2304
     21 C         143.5436  132.7368  156.8736 C.ar    1  UNL1        0.1682
     22 N         144.4351  131.9376  157.7771 N.am    1  UNL1       -0.2639
     23 H         145.1438  132.3866  158.2923 H       1  UNL1        0.1565
     24 C         138.9894  139.5019  160.4169 C.3     1  UNL1        0.0603
     25 C         138.9296  140.9713  160.7123 C.3     1  UNL1        0.1322
     26 O         139.1339  141.1169  159.2334 O.3     1  UNL1       -0.3806
     27 C         138.9125  142.4712  160.6985 C.3     1  UNL1        0.1401
     28 N         138.7101  142.9454  162.1071 N.ar    1  UNL1       -0.2915
     29 C         138.6101  144.3201  162.6988 C.ar    1  UNL1        0.2611
     30 O         138.7181  145.5269  161.8144 O.2     1  UNL1       -0.2670
     31 C         138.4023  144.4881  164.1747 C.ar    1  UNL1        0.0623
     32 C         138.2943  143.2814  165.0591 C.ar    1  UNL1        0.0254
     33 C         138.3942  141.9066  164.4675 C.ar    1  UNL1        0.0971
     34 N         138.3233  140.5411  165.1006 N.ar    1  UNL1       -0.2415
     35 C         138.4417  139.2366  164.3697 C.ar    1  UNL1        0.1100
     36 C         138.6490  139.2254  162.8842 C.ar    1  UNL1        0.0764
     37 CL        138.7674  137.9208  162.1533 Cl      1  UNL1       -0.0808
     38 C         138.7378  140.5186  162.1294 C.ar    1  UNL1        0.0331
     39 C         138.6021  141.7386  162.9915 C.ar    1  UNL1        0.0792
     40 H         139.1543  142.0584  159.0010 H       1  UNL1        0.2108
@<TRIPOS>BOND
     1    12    13    2
     2    13    14    1
     3    14    15    1
     4    15    16    1
     5    16    17   ar
     6    17    18   ar
     7    18    19   ar
     8    19    11    1
     9    11     9    1
    10     9     1    1
    11     1     2    1
    12     2     3    1
    13     3     4    1
    14     4    24    1
    15    24    25    1
    16    25    26    1
    17    25    27    1
    18    27    28    1
    19    28    29   ar
    20    29    30    2
    21    29    31   ar
    22    31    32   ar
    23    32    33   ar
    24    33    34   ar
    25    34    35   ar
    26    35    36   ar
    27    36    37    1
    28    36    38   ar
    29    38    39   ar
    30     4     5    1
    31     5     6    1
    32     4     7    1
    33     7     8    1
    34    19    20   ar
    35    20    21   ar
    36    21    22    1
    37    22    13   am
    38    21    16   ar
    39     6     1    1
    40     8     1    1
    41    38    25    1
    42    39    28   ar
    43    39    33   ar
    44     9    10    1
    45    26    40    1
    46    22    23    1
@<TRIPOS>MOLECULE
*****
 40 46 0 0 0
SMALL
GASTEIGER

@<TRIPOS>ATOM
      1 C         137.6493  139.4497  161.3527 C.3     1  UNL1        0.0700
      2 C         138.2458  138.0822  161.5084 C.3     1  UNL1        0.0193
      3 C         138.9417  137.7083  162.7835 C.3     1  UNL1        0.0287
      4 C         139.0411  138.7019  163.9030 C.3     1  UNL1        0.0955
      5 C         138.4446  140.0693  163.7472 C.3     1  UNL1        0.0287
      6 C         137.7487  140.4432  162.4721 C.3     1  UNL1        0.0193
      7 O         138.6502  138.9525  163.2230 O.3     1  UNL1       -0.3571
      8 C         138.0209  139.2906  162.0701 C.3     1  UNL1        0.1562
      9 N         136.9534  139.8236  160.0776 N.3     1  UNL1       -0.2926
     10 H         136.5485  138.9666  159.7008 H       1  UNL1        0.1236
     11 C         137.7249  140.4646  158.9623 C.3     1  UNL1        0.1152
     12 O         145.0230  141.1506  161.6116 O.2     1  UNL1       -0.2707
     13 C         143.7857  141.7741  161.0365 C.2     1  UNL1        0.2718
     14 C         143.7440  143.2494  160.7695 C.3     1  UNL1        0.2898
     15 O         142.5068  143.8729  160.1944 O.3     1  UNL1       -0.4628
     16 C         141.3113  143.0208  159.8864 C.ar    1  UNL1        0.1708
     17 C         140.0741  143.6442  159.3114 C.ar    1  UNL1        0.0411
     18 C         138.8787  142.7921  159.0033 C.ar    1  UNL1        0.0193
     19 C         138.9204  141.3167  159.2704 C.ar    1  UNL1        0.0765
     20 N         140.1577  140.6933  159.8454 N.ar    1  UNL1       -0.2304
     21 C         141.3531  141.5454  160.1535 C.ar    1  UNL1        0.1682
     22 N         142.5903  140.9220  160.7285 N.am    1  UNL1       -0.2639
     23 H         142.6177  139.9536  160.9038 H       1  UNL1        0.1565
     24 C         139.7370  138.3279  165.1781 C.3     1  UNL1        0.0603
     25 C         139.2296  138.8489  166.4900 C.3     1  UNL1        0.1322
     26 O         137.9985  138.0640  166.1464 O.3     1  UNL1       -0.3806
     27 C         138.4650  139.2058  167.7301 C.3     1  UNL1        0.1401
     28 N         139.3296  140.1024  168.5660 N.ar    1  UNL1       -0.2915
     29 C         139.1018  140.7647  169.8924 C.ar    1  UNL1        0.2611
     30 O         137.8028  140.5675  170.6159 O.2     1  UNL1       -0.2670
     31 C         140.1731  141.6242  170.4952 C.ar    1  UNL1        0.0623
     32 C         141.4722  141.8214  169.7717 C.ar    1  UNL1        0.0254
     33 C         141.7000  141.1591  168.4453 C.ar    1  UNL1        0.0971
     34 N         142.8821  141.1784  167.5111 N.ar    1  UNL1       -0.2415
     35 C         142.9655  140.4559  166.1992 C.ar    1  UNL1        0.1100
     36 C         141.8079  139.6292  165.7234 C.ar    1  UNL1        0.0764
     37 CL        141.8914  138.9067  164.4115 Cl      1  UNL1       -0.0808
     38 C         140.5669  139.5249  166.5594 C.ar    1  UNL1        0.0331
     39 C         140.6287  140.2996  167.8424 C.ar    1  UNL1        0.0792
     40 H         137.3432  138.1639  166.8546 H       1  UNL1        0.2108
@<TRIPOS>BOND
     1    12    13    2
     2    13    14    1
     3    14    15    1
     4    15    16    1
     5    16    17   ar
     6    17    18   ar
     7    18    19   ar
     8    19    11    1
     9    11     9    1
    10     9     1    1
    11     1     2    1
    12     2     3    1
    13     3     4    1
    14     4    24    1
    15    24    25    1
    16    25    26    1
    17    25    27    1
    18    27    28    1
    19    28    29   ar
    20    29    30    2
    21    29    31   ar
    22    31    32   ar
    23    32    33   ar
    24    33    34   ar
    25    34    35   ar
    26    35    36   ar
    27    36    37    1
    28    36    38   ar
    29    38    39   ar
    30     4     5    1
    31     5     6    1
    32     4     7    1
    33     7     8    1
    34    19    20   ar
    35    20    21   ar
    36    21    22    1
    37    22    13   am
    38    21    16   ar
    39     6     1    1
    40     8     1    1
    41    38    25    1
    42    39    28   ar
    43    39    33   ar
    44     9    10    1
    45    26    40    1
    46    22    23    1
