@<TRIPOS>MOLECULE
*****
 39 44 0 0 0
SMALL
GASTEIGER

@<TRIPOS>ATOM
      1 C         142.8059  135.8010  157.6801 C.ar    1  UNL1        0.2400
      2 N         142.2349  135.3380  156.3726 N.ar    1  UNL1       -0.2090
      3 C         141.5168  136.3083  155.4822 C.ar    1  UNL1        0.1026
      4 C         141.1929  137.8112  155.5977 C.ar    1  UNL1        0.0267
      5 C         141.9514  137.2739  156.7751 C.ar    1  UNL1        0.0226
      6 C         142.6587  137.2344  158.0972 C.ar    1  UNL1        0.1178
      7 N         143.2297  137.6974  159.4047 N.pl3   1  UNL1       -0.2104
      8 S         143.5954  138.6072  160.5398 S.O2    1  UNL1        0.0737
      9 O         144.3298  138.3983  161.8309 O.2     1  UNL1       -0.1499
     10 O         144.0609  137.1949  160.7367 O.2     1  UNL1       -0.1499
     11 C         143.7117  139.8540  161.3658 C.ar    1  UNL1        0.1253
     12 C         144.4191  139.8145  162.6879 C.ar    1  UNL1        0.0202
     13 C         144.5354  141.0612  163.5138 C.ar    1  UNL1        0.0015
     14 C         143.9443  142.3474  163.0175 C.ar    1  UNL1        0.0046
     15 C         143.2369  142.3869  161.6954 C.ar    1  UNL1        0.0547
     16 C         143.1206  141.1402  160.8695 C.ar    1  UNL1        0.0247
     17 C         142.5808  144.0206  161.2444 C.2     1  UNL1        0.2461
     18 O         142.9464  144.9304  162.3796 O.2     1  UNL1       -0.2701
     19 N         141.8627  144.9908  160.3539 N.am    1  UNL1       -0.2969
     20 C         141.1042  145.5281  159.1767 C.3     1  UNL1        0.1166
     21 C         140.3968  145.5676  157.8545 C.ar    1  UNL1       -0.0025
     22 C         139.6928  146.6883  157.0636 C.ar    1  UNL1       -0.0026
     23 C         138.9854  146.7277  155.7415 C.ar    1  UNL1       -0.0002
     24 C         138.8691  145.4810  154.9156 C.ar    1  UNL1        0.0015
     25 C         139.4602  144.1948  155.4118 C.ar    1  UNL1        0.0175
     26 C         139.8259  145.1046  156.5470 C.ar    1  UNL1       -0.0011
     27 C         139.3439  142.9481  154.5859 C.ar    1  UNL1        0.0850
     28 N         138.6258  143.9184  153.6954 N.ar    1  UNL1       -0.2239
     29 C         138.0548  143.4553  152.3879 C.ar    1  UNL1        0.1993
     30 N         138.2019  142.0220  151.9708 N.ar    1  UNL1       -0.2173
     31 C         138.9200  141.0517  152.8614 C.ar    1  UNL1        0.1139
     32 S         139.3232  139.6082  152.9249 S.2     1  UNL1       -0.0679
     33 C         140.4748  138.7815  154.7073 C.ar    1  UNL1        0.0325
     34 C         139.8838  140.0677  154.2111 C.ar    1  UNL1        0.0101
     35 C         139.4910  141.5147  154.1689 C.ar    1  UNL1        0.0421
     36 H         143.6177  136.8532  159.7304 H       1  UNL1        0.1739
     37 H         141.9390  145.8091  160.8960 H       1  UNL1        0.1501
     38 C         144.0859  133.5628  157.9993 C.3     1  UNL1        0.2543
     39 O         143.5239  134.8308  158.5706 O.3     1  UNL1       -0.4553
@<TRIPOS>BOND
     1    38    39    1
     2    39     1    1
     3     1     2   ar
     4     2     3   ar
     5     3     4   ar
     6     4     5   ar
     7     5     6   ar
     8     6     7    1
     9     7     8    1
    10     8     9    2
    11     8    10    2
    12     8    11    1
    13    11    12   ar
    14    12    13   ar
    15    13    14   ar
    16    14    15   ar
    17    15    16   ar
    18    15    17    1
    19    17    18    2
    20    17    19   am
    21    19    20    1
    22    20    21    1
    23    21    22   ar
    24    22    23   ar
    25    23    24   ar
    26    24    25   ar
    27    25    26   ar
    28    25    27    1
    29    27    28   ar
    30    28    29   ar
    31    29    30   ar
    32    30    31   ar
    33    31    32   ar
    34    32    33   ar
    35    33    34   ar
    36    34    35   ar
    37     6     1   ar
    38    16    11   ar
    39    26    21   ar
    40    35    27   ar
    41    33     4    1
    42    35    31   ar
    43     7    36    1
    44    19    37    1
@<TRIPOS>MOLECULE
*****
 39 44 0 0 0
SMALL
GASTEIGER

@<TRIPOS>ATOM
      1 C         140.3184  145.6687  154.8191 C.ar    1  UNL1        0.2400
      2 N         139.9255  146.8260  155.6888 N.ar    1  UNL1       -0.2090
      3 C         139.9317  146.6784  157.1815 C.ar    1  UNL1        0.1026
      4 C         140.2776  145.5120  158.1286 C.ar    1  UNL1        0.0267
      5 C         140.4282  145.1645  156.6771 C.ar    1  UNL1        0.0226
      6 C         140.7174  144.3639  155.4421 C.ar    1  UNL1        0.1178
      7 N         141.1103  143.2066  154.5724 N.pl3   1  UNL1       -0.2104
      8 S         141.5595  141.8323  154.1729 S.O2    1  UNL1        0.0737
      9 O         141.8056  141.1745  152.8476 O.2     1  UNL1       -0.1499
     10 O         141.3031  142.7368  153.0040 O.2     1  UNL1       -0.1499
     11 C         142.0108  140.4067  154.2918 C.ar    1  UNL1        0.1253
     12 C         142.3000  139.6061  153.0568 C.ar    1  UNL1        0.0202
     13 C         142.7513  138.1806  153.1758 C.ar    1  UNL1        0.0015
     14 C         142.9134  137.5557  154.5297 C.ar    1  UNL1        0.0046
     15 C         142.6242  138.3563  155.7648 C.ar    1  UNL1        0.0547
     16 C         142.1729  139.7818  155.6458 C.ar    1  UNL1        0.0247
     17 C         142.8705  137.4502  157.3207 C.2     1  UNL1        0.2461
     18 O         143.3197  136.0759  156.9213 O.2     1  UNL1       -0.2701
     19 N         142.8766  137.3027  158.8134 N.am    1  UNL1       -0.2969
     20 C         142.7260  137.6501  160.2648 C.3     1  UNL1        0.1166
     21 C         142.4368  138.4508  161.4999 C.ar    1  UNL1       -0.0025
     22 C         142.4974  138.1312  163.0069 C.ar    1  UNL1       -0.0026
     23 C         142.2081  138.9319  164.2420 C.ar    1  UNL1       -0.0002
     24 C         141.7568  140.3574  164.1230 C.ar    1  UNL1        0.0015
     25 C         141.5947  140.9823  162.7691 C.ar    1  UNL1        0.0175
     26 C         142.0439  139.6080  162.3696 C.ar    1  UNL1       -0.0011
     27 C         141.1434  142.4078  162.6501 C.ar    1  UNL1        0.0850
     28 N         141.1495  142.2602  164.1429 N.ar    1  UNL1       -0.2239
     29 C         140.7567  143.4175  165.0126 C.ar    1  UNL1        0.1993
     30 N         140.3577  144.7224  164.3896 N.ar    1  UNL1       -0.2173
     31 C         140.3515  144.8699  162.8968 C.ar    1  UNL1        0.1139
     32 S         140.0586  145.8807  161.8279 S.2     1  UNL1       -0.0679
     33 C         140.2837  145.3643  159.6212 C.ar    1  UNL1        0.0325
     34 C         140.4459  144.7395  160.9752 C.ar    1  UNL1        0.0101
     35 C         140.7444  143.7127  162.0271 C.ar    1  UNL1        0.0421
     36 H         141.0039  143.6167  153.6837 H       1  UNL1        0.1739
     37 H         143.1728  136.3670  158.8915 H       1  UNL1        0.1501
     38 C         141.4546  146.5004  152.6357 C.3     1  UNL1        0.2543
     39 O         140.3123  145.8164  153.3264 O.3     1  UNL1       -0.4553
@<TRIPOS>BOND
     1    38    39    1
     2    39     1    1
     3     1     2   ar
     4     2     3   ar
     5     3     4   ar
     6     4     5   ar
     7     5     6   ar
     8     6     7    1
     9     7     8    1
    10     8     9    2
    11     8    10    2
    12     8    11    1
    13    11    12   ar
    14    12    13   ar
    15    13    14   ar
    16    14    15   ar
    17    15    16   ar
    18    15    17    1
    19    17    18    2
    20    17    19   am
    21    19    20    1
    22    20    21    1
    23    21    22   ar
    24    22    23   ar
    25    23    24   ar
    26    24    25   ar
    27    25    26   ar
    28    25    27    1
    29    27    28   ar
    30    28    29   ar
    31    29    30   ar
    32    30    31   ar
    33    31    32   ar
    34    32    33   ar
    35    33    34   ar
    36    34    35   ar
    37     6     1   ar
    38    16    11   ar
    39    26    21   ar
    40    35    27   ar
    41    33     4    1
    42    35    31   ar
    43     7    36    1
    44    19    37    1
@<TRIPOS>MOLECULE
*****
 39 44 0 0 0
SMALL
GASTEIGER

@<TRIPOS>ATOM
      1 C         142.6967  137.0103  155.4242 C.ar    1  UNL1        0.2400
      2 N         142.9846  136.0039  156.4986 N.ar    1  UNL1       -0.2090
      3 C         142.8819  136.3980  157.9422 C.ar    1  UNL1        0.1026
      4 C         142.5167  137.7144  158.6570 C.ar    1  UNL1        0.0267
      5 C         142.4792  137.8194  157.1611 C.ar    1  UNL1        0.0226
      6 C         142.3061  138.4107  155.7935 C.ar    1  UNL1        0.1178
      7 N         142.0182  139.4170  154.7191 N.pl3   1  UNL1       -0.2104
      8 S         141.6503  140.7171  154.0675 S.O2    1  UNL1        0.0737
      9 O         141.5209  141.1515  152.6376 O.2     1  UNL1       -0.1499
     10 O         141.9514  139.6243  153.0850 O.2     1  UNL1       -0.1499
     11 C         141.2467  142.1540  153.9172 C.ar    1  UNL1        0.1253
     12 C         141.0736  142.7453  152.5496 C.ar    1  UNL1        0.0202
     13 C         140.6700  144.1821  152.3994 C.ar    1  UNL1        0.0015
     14 C         140.4395  145.0276  153.6168 C.ar    1  UNL1        0.0046
     15 C         140.6126  144.4363  154.9843 C.ar    1  UNL1        0.0547
     16 C         141.0162  142.9995  155.1346 C.ar    1  UNL1        0.0247
     17 C         140.2951  145.5948  156.3481 C.2     1  UNL1        0.2461
     18 O         139.9272  146.8948  155.6965 O.2     1  UNL1       -0.2701
     19 N         140.1924  145.9888  157.7918 N.am    1  UNL1       -0.2969
     20 C         140.2298  145.8839  159.2876 C.3     1  UNL1        0.1166
     21 C         140.4029  145.2925  160.6552 C.ar    1  UNL1       -0.0025
     22 C         140.2515  145.8598  162.0808 C.ar    1  UNL1       -0.0026
     23 C         140.4246  145.2684  163.4484 C.ar    1  UNL1       -0.0002
     24 C         140.8282  143.8316  163.5986 C.ar    1  UNL1        0.0015
     25 C         141.0588  142.9861  162.3812 C.ar    1  UNL1        0.0175
     26 C         140.6908  144.2861  161.7296 C.ar    1  UNL1       -0.0011
     27 C         141.4624  141.5493  162.5315 C.ar    1  UNL1        0.0850
     28 N         141.3596  141.9433  163.9752 N.ar    1  UNL1       -0.2239
     29 C         141.6475  140.9369  165.0496 C.ar    1  UNL1        0.1993
     30 N         142.0381  139.5365  164.6804 N.ar    1  UNL1       -0.2173
     31 C         142.1408  139.1425  163.2366 C.ar    1  UNL1        0.1139
     32 S         142.4675  137.9607  162.3726 S.2     1  UNL1       -0.0679
     33 C         142.4139  138.1084  160.1006 C.ar    1  UNL1        0.0325
     34 C         142.1834  138.9539  161.3179 C.ar    1  UNL1        0.0101
     35 C         141.8530  140.1489  162.1622 C.ar    1  UNL1        0.0421
     36 H         142.1695  138.8621  153.9201 H       1  UNL1        0.1739
     37 H         139.9275  146.9318  157.6931 H       1  UNL1        0.1501
     38 C         141.8663  135.5866  153.4159 C.3     1  UNL1        0.2543
     39 O         142.7995  136.6163  153.9806 O.3     1  UNL1       -0.4553
@<TRIPOS>BOND
     1    38    39    1
     2    39     1    1
     3     1     2   ar
     4     2     3   ar
     5     3     4   ar
     6     4     5   ar
     7     5     6   ar
     8     6     7    1
     9     7     8    1
    10     8     9    2
    11     8    10    2
    12     8    11    1
    13    11    12   ar
    14    12    13   ar
    15    13    14   ar
    16    14    15   ar
    17    15    16   ar
    18    15    17    1
    19    17    18    2
    20    17    19   am
    21    19    20    1
    22    20    21    1
    23    21    22   ar
    24    22    23   ar
    25    23    24   ar
    26    24    25   ar
    27    25    26   ar
    28    25    27    1
    29    27    28   ar
    30    28    29   ar
    31    29    30   ar
    32    30    31   ar
    33    31    32   ar
    34    32    33   ar
    35    33    34   ar
    36    34    35   ar
    37     6     1   ar
    38    16    11   ar
    39    26    21   ar
    40    35    27   ar
    41    33     4    1
    42    35    31   ar
    43     7    36    1
    44    19    37    1
@<TRIPOS>MOLECULE
*****
 39 44 0 0 0
SMALL
GASTEIGER

@<TRIPOS>ATOM
      1 C         143.6556  142.4755  160.7774 C.ar    1  UNL1        0.2400
      2 N         144.3476  141.2218  161.2238 N.ar    1  UNL1       -0.2090
      3 C         144.1225  139.9367  160.4838 C.ar    1  UNL1        0.1026
      4 C         143.2694  139.5570  159.2569 C.ar    1  UNL1        0.0267
      5 C         143.1632  141.0060  159.6299 C.ar    1  UNL1        0.0226
      6 C         142.7385  142.4441  159.5908 C.ar    1  UNL1        0.1178
      7 N         142.0465  143.6978  159.1444 N.pl3   1  UNL1       -0.2104
      8 S         141.1706  144.6159  158.3443 S.O2    1  UNL1        0.0737
      9 O         140.8482  146.0774  158.4445 O.2     1  UNL1       -0.1499
     10 O         141.8692  145.3019  159.4808 O.2     1  UNL1       -0.1499
     11 C         140.2166  145.0877  157.2873 C.ar    1  UNL1        0.1253
     12 C         139.7919  146.5258  157.2482 C.ar    1  UNL1        0.0202
     13 C         138.8379  146.9975  156.1912 C.ar    1  UNL1        0.0015
     14 C         138.3086  146.0312  155.1733 C.ar    1  UNL1        0.0046
     15 C         138.7333  144.5932  155.2124 C.ar    1  UNL1        0.0547
     16 C         139.6873  144.1214  156.2694 C.ar    1  UNL1        0.0247
     17 C         138.0006  143.5591  153.9099 C.2     1  UNL1        0.2461
     18 O         137.1248  144.4771  153.1099 O.2     1  UNL1       -0.2701
     19 N         137.7756  142.2739  153.1699 N.am    1  UNL1       -0.2969
     20 C         137.8817  140.8249  152.7968 C.3     1  UNL1        0.1166
     21 C         138.3065  139.3868  152.8360 C.ar    1  UNL1       -0.0025
     22 C         137.9663  138.1586  151.9684 C.ar    1  UNL1       -0.0026
     23 C         138.3911  136.7205  152.0075 C.ar    1  UNL1       -0.0002
     24 C         139.3451  136.2487  153.0645 C.ar    1  UNL1        0.0015
     25 C         139.8744  137.2150  154.0824 C.ar    1  UNL1        0.0175
     26 C         138.9985  138.1331  153.2824 C.ar    1  UNL1       -0.0011
     27 C         140.8283  136.7433  155.1394 C.ar    1  UNL1        0.0850
     28 N         140.6033  135.4580  154.3993 N.ar    1  UNL1       -0.2239
     29 C         141.2953  134.2044  154.8458 C.ar    1  UNL1        0.1993
     30 N         142.2124  134.2358  156.0324 N.ar    1  UNL1       -0.2173
     31 C         142.4375  135.5210  156.7724 C.ar    1  UNL1        0.1139
     32 S         143.1979  136.0737  157.9413 S.2     1  UNL1       -0.0679
     33 C         143.0443  138.2719  158.5168 C.ar    1  UNL1        0.0325
     34 C         142.5151  137.3056  157.4989 C.ar    1  UNL1        0.0101
     35 C         141.7455  136.7747  156.3260 C.ar    1  UNL1        0.0421
     36 H         142.3939  144.3320  159.8124 H       1  UNL1        0.1739
     37 H         137.1494  142.5835  152.4761 H       1  UNL1        0.1501
     38 C         142.9903  144.1303  162.6666 C.3     1  UNL1        0.2543
     39 O         143.8807  143.7607  161.5174 O.3     1  UNL1       -0.4553
@<TRIPOS>BOND
     1    38    39    1
     2    39     1    1
     3     1     2   ar
     4     2     3   ar
     5     3     4   ar
     6     4     5   ar
     7     5     6   ar
     8     6     7    1
     9     7     8    1
    10     8     9    2
    11     8    10    2
    12     8    11    1
    13    11    12   ar
    14    12    13   ar
    15    13    14   ar
    16    14    15   ar
    17    15    16   ar
    18    15    17    1
    19    17    18    2
    20    17    19   am
    21    19    20    1
    22    20    21    1
    23    21    22   ar
    24    22    23   ar
    25    23    24   ar
    26    24    25   ar
    27    25    26   ar
    28    25    27    1
    29    27    28   ar
    30    28    29   ar
    31    29    30   ar
    32    30    31   ar
    33    31    32   ar
    34    32    33   ar
    35    33    34   ar
    36    34    35   ar
    37     6     1   ar
    38    16    11   ar
    39    26    21   ar
    40    35    27   ar
    41    33     4    1
    42    35    31   ar
    43     7    36    1
    44    19    37    1
@<TRIPOS>MOLECULE
*****
 39 44 0 0 0
SMALL
GASTEIGER

@<TRIPOS>ATOM
      1 C         138.6892  142.8687  154.1830 C.ar    1  UNL1        0.2400
      2 N         138.3778  144.2473  154.6856 N.ar    1  UNL1       -0.2090
      3 C         138.8012  144.6559  156.0653 C.ar    1  UNL1        0.1026
      4 C         139.5513  143.9311  157.2007 C.ar    1  UNL1        0.0267
      5 C         139.3600  143.0834  155.9781 C.ar    1  UNL1        0.0226
      6 C         139.4239  141.8988  155.0602 C.ar    1  UNL1        0.1178
      7 N         139.7352  140.5202  154.5576 N.pl3   1  UNL1       -0.2104
      8 S         140.2565  139.1140  154.5310 S.O2    1  UNL1        0.0737
      9 O         140.2347  138.0275  153.4971 O.2     1  UNL1       -0.1499
     10 O         139.5709  139.5176  153.2593 O.2     1  UNL1       -0.1499
     11 C         140.9248  137.8496  154.9836 C.ar    1  UNL1        0.1253
     12 C         140.9887  136.6650  154.0656 C.ar    1  UNL1        0.0202
     13 C         141.6570  135.4007  154.5182 C.ar    1  UNL1        0.0015
     14 C         142.2614  135.3210  155.8887 C.ar    1  UNL1        0.0046
     15 C         142.1975  136.5056  156.8067 C.ar    1  UNL1        0.0547
     16 C         141.5292  137.7699  156.3541 C.ar    1  UNL1        0.0247
     17 C         142.9765  136.2414  158.4272 C.2     1  UNL1        0.2461
     18 O         143.4977  134.8352  158.4007 O.2     1  UNL1       -0.2701
     19 N         143.3998  136.6502  159.8070 N.am    1  UNL1       -0.2969
     20 C         143.5911  137.4979  161.0296 C.3     1  UNL1        0.1166
     21 C         143.5272  138.6825  161.9475 C.ar    1  UNL1       -0.0025
     22 C         144.0312  138.9386  163.3819 C.ar    1  UNL1       -0.0026
     23 C         143.9673  140.1233  164.2998 C.ar    1  UNL1       -0.0002
     24 C         143.2990  141.3876  163.8472 C.ar    1  UNL1        0.0015
     25 C         142.6946  141.4673  162.4767 C.ar    1  UNL1        0.0175
     26 C         143.2159  140.0611  162.4501 C.ar    1  UNL1       -0.0011
     27 C         142.0263  142.7317  162.0241 C.ar    1  UNL1        0.0850
     28 N         142.4497  143.1404  163.4040 N.ar    1  UNL1       -0.2239
     29 C         142.1383  144.5189  163.9065 C.ar    1  UNL1        0.1993
     30 N         141.4036  145.4889  163.0294 N.ar    1  UNL1       -0.2173
     31 C         140.9803  145.0801  161.6495 C.ar    1  UNL1        0.1139
     32 S         140.2709  145.6177  160.4421 S.2     1  UNL1       -0.0679
     33 C         139.9747  144.3398  158.5804 C.ar    1  UNL1        0.0325
     34 C         140.5791  144.2601  159.9510 C.ar    1  UNL1        0.0101
     35 C         141.2916  143.7016  161.1469 C.ar    1  UNL1        0.0421
     36 H         139.3385  140.5726  153.6580 H       1  UNL1        0.1739
     37 H         143.8384  135.8203  160.1040 H       1  UNL1        0.1501
     38 C         136.9145  141.8471  152.5840 C.3     1  UNL1        0.2543
     39 O         138.2658  142.4601  152.8032 O.3     1  UNL1       -0.4553
@<TRIPOS>BOND
     1    38    39    1
     2    39     1    1
     3     1     2   ar
     4     2     3   ar
     5     3     4   ar
     6     4     5   ar
     7     5     6   ar
     8     6     7    1
     9     7     8    1
    10     8     9    2
    11     8    10    2
    12     8    11    1
    13    11    12   ar
    14    12    13   ar
    15    13    14   ar
    16    14    15   ar
    17    15    16   ar
    18    15    17    1
    19    17    18    2
    20    17    19   am
    21    19    20    1
    22    20    21    1
    23    21    22   ar
    24    22    23   ar
    25    23    24   ar
    26    24    25   ar
    27    25    26   ar
    28    25    27    1
    29    27    28   ar
    30    28    29   ar
    31    29    30   ar
    32    30    31   ar
    33    31    32   ar
    34    32    33   ar
    35    33    34   ar
    36    34    35   ar
    37     6     1   ar
    38    16    11   ar
    39    26    21   ar
    40    35    27   ar
    41    33     4    1
    42    35    31   ar
    43     7    36    1
    44    19    37    1
@<TRIPOS>MOLECULE
*****
 39 44 0 0 0
SMALL
GASTEIGER

@<TRIPOS>ATOM
      1 C         139.2230  146.9492  156.9954 C.ar    1  UNL1        0.2400
      2 N         139.1018  146.9512  155.5003 N.ar    1  UNL1       -0.2090
      3 C         139.4741  145.7280  154.7160 C.ar    1  UNL1        0.1026
      4 C         140.0022  144.3352  155.1142 C.ar    1  UNL1        0.0267
      5 C         139.7737  145.2423  156.2868 C.ar    1  UNL1        0.0226
      6 C         139.7167  145.7239  157.7062 C.ar    1  UNL1        0.1178
      7 N         139.8379  145.7220  159.2013 N.pl3   1  UNL1       -0.2104
      8 S         140.1228  145.2366  160.5917 S.O2    1  UNL1        0.0737
      9 O         140.0068  145.8692  161.9468 O.2     1  UNL1       -0.1499
     10 O         139.6167  146.6479  160.5471 O.2     1  UNL1       -0.1499
     11 C         140.5371  144.3264  161.7098 C.ar    1  UNL1        0.1253
     12 C         140.4800  144.8080  163.1292 C.ar    1  UNL1        0.0202
     13 C         140.8943  143.8978  164.2471 C.ar    1  UNL1        0.0015
     14 C         141.3656  142.5061  163.9457 C.ar    1  UNL1        0.0046
     15 C         141.4226  142.0245  162.5263 C.ar    1  UNL1        0.0547
     16 C         141.0084  142.9346  161.4083 C.ar    1  UNL1        0.0247
     17 C         142.0154  140.3170  162.3370 C.2     1  UNL1        0.2461
     18 O         142.3003  139.8316  163.7273 O.2     1  UNL1       -0.2701
     19 N         142.3877  139.0938  161.5526 N.am    1  UNL1       -0.2969
     20 C         142.6162  138.1866  160.3801 C.3     1  UNL1        0.1166
     21 C         142.6732  137.7051  158.9606 C.ar    1  UNL1       -0.0025
     22 C         143.0955  136.3721  158.3112 C.ar    1  UNL1       -0.0026
     23 C         143.1526  135.8905  156.8917 C.ar    1  UNL1       -0.0002
     24 C         142.7383  136.8006  155.7737 C.ar    1  UNL1        0.0015
     25 C         142.2670  138.1924  156.0751 C.ar    1  UNL1        0.0175
     26 C         142.5520  137.7070  157.4655 C.ar    1  UNL1       -0.0011
     27 C         141.8528  139.1026  154.9571 C.ar    1  UNL1        0.0850
     28 N         142.2252  137.8793  154.1727 N.ar    1  UNL1       -0.2239
     29 C         142.1039  137.8814  152.6777 C.ar    1  UNL1        0.1993
     30 N         141.6103  139.1065  151.9669 N.ar    1  UNL1       -0.2173
     31 C         141.2380  140.3298  152.7512 C.ar    1  UNL1        0.1139
     32 S         140.7251  141.7260  152.5571 S.2     1  UNL1       -0.0679
     33 C         140.3745  143.1120  154.3299 C.ar    1  UNL1        0.0325
     34 C         140.8458  141.7203  154.0285 C.ar    1  UNL1        0.0101
     35 C         141.3592  140.3278  154.2463 C.ar    1  UNL1        0.0421
     36 H         139.5286  146.6354  159.3991 H       1  UNL1        0.1739
     37 H         142.6596  138.4964  162.2864 H       1  UNL1        0.1501
     38 C         138.4555  149.4303  157.0646 C.3     1  UNL1        0.2543
     39 O         138.8507  148.1724  157.7796 O.3     1  UNL1       -0.4553
@<TRIPOS>BOND
     1    38    39    1
     2    39     1    1
     3     1     2   ar
     4     2     3   ar
     5     3     4   ar
     6     4     5   ar
     7     5     6   ar
     8     6     7    1
     9     7     8    1
    10     8     9    2
    11     8    10    2
    12     8    11    1
    13    11    12   ar
    14    12    13   ar
    15    13    14   ar
    16    14    15   ar
    17    15    16   ar
    18    15    17    1
    19    17    18    2
    20    17    19   am
    21    19    20    1
    22    20    21    1
    23    21    22   ar
    24    22    23   ar
    25    23    24   ar
    26    24    25   ar
    27    25    26   ar
    28    25    27    1
    29    27    28   ar
    30    28    29   ar
    31    29    30   ar
    32    30    31   ar
    33    31    32   ar
    34    32    33   ar
    35    33    34   ar
    36    34    35   ar
    37     6     1   ar
    38    16    11   ar
    39    26    21   ar
    40    35    27   ar
    41    33     4    1
    42    35    31   ar
    43     7    36    1
    44    19    37    1
@<TRIPOS>MOLECULE
*****
 39 44 0 0 0
SMALL
GASTEIGER

@<TRIPOS>ATOM
      1 C         143.8896  141.3301  161.6421 C.ar    1  UNL1        0.2400
      2 N         144.4594  139.9933  162.0141 N.ar    1  UNL1       -0.2090
      3 C         144.2117  138.8020  161.1370 C.ar    1  UNL1        0.1026
      4 C         143.4385  138.6007  159.8184 C.ar    1  UNL1        0.0267
      5 C         143.3973  140.0129  160.3225 C.ar    1  UNL1        0.0226
      6 C         143.0722  141.4755  160.3927 C.ar    1  UNL1        0.1178
      7 N         142.5025  142.8122  160.0206 N.pl3   1  UNL1       -0.2104
      8 S         141.7567  143.8618  159.2511 S.O2    1  UNL1        0.0737
      9 O         141.5235  145.3274  159.4695 O.2     1  UNL1       -0.1499
     10 O         142.4037  144.3870  160.4983 O.2     1  UNL1       -0.1499
     11 C         140.9250  144.4977  158.1768 C.ar    1  UNL1        0.1253
     12 C         140.5999  145.9603  158.2471 C.ar    1  UNL1        0.0202
     13 C         139.7682  146.5962  157.1729 C.ar    1  UNL1        0.0015
     14 C         139.2616  145.7694  156.0284 C.ar    1  UNL1        0.0046
     15 C         139.5866  144.3067  155.9582 C.ar    1  UNL1        0.0547
     16 C         140.4183  143.6709  157.0324 C.ar    1  UNL1        0.0247
     17 C         138.8964  143.4537  154.5095 C.2     1  UNL1        0.2461
     18 O         138.1507  144.5033  153.7399 O.2     1  UNL1       -0.2701
     19 N         138.6488  142.2624  153.6324 N.am    1  UNL1       -0.2969
     20 C         138.6900  140.8503  153.1282 C.3     1  UNL1        0.1166
     21 C         139.0151  139.3876  153.0580 C.ar    1  UNL1       -0.0025
     22 C         138.6671  138.2730  152.0513 C.ar    1  UNL1       -0.0026
     23 C         138.9922  136.8102  151.9811 C.ar    1  UNL1       -0.0002
     24 C         139.8239  136.1744  153.0553 C.ar    1  UNL1        0.0015
     25 C         140.3306  137.0012  154.1997 C.ar    1  UNL1        0.0175
     26 C         139.5849  138.0508  153.4301 C.ar    1  UNL1       -0.0011
     27 C         141.1623  136.3654  155.2739 C.ar    1  UNL1        0.0850
     28 N         140.9146  135.1740  154.3967 N.ar    1  UNL1       -0.2239
     29 C         141.4844  133.8373  154.7689 C.ar    1  UNL1        0.1993
     30 N         142.3018  133.6918  156.0182 N.ar    1  UNL1       -0.2173
     31 C         142.5495  134.8832  156.8953 C.ar    1  UNL1        0.1139
     32 S         143.2466  135.2685  158.1664 S.2     1  UNL1       -0.0679
     33 C         143.1908  137.4094  158.9413 C.ar    1  UNL1        0.0325
     34 C         142.6842  136.5826  157.7968 C.ar    1  UNL1        0.0101
     35 C         141.9797  136.2200  156.5232 C.ar    1  UNL1        0.0421
     36 H         142.8350  143.3549  160.7718 H       1  UNL1        0.1739
     37 H         138.1029  142.6797  152.9273 H       1  UNL1        0.1501
     38 C         145.0670  142.4097  163.6909 C.3     1  UNL1        0.2543
     39 O         144.1373  142.5214  162.5192 O.3     1  UNL1       -0.4553
@<TRIPOS>BOND
     1    38    39    1
     2    39     1    1
     3     1     2   ar
     4     2     3   ar
     5     3     4   ar
     6     4     5   ar
     7     5     6   ar
     8     6     7    1
     9     7     8    1
    10     8     9    2
    11     8    10    2
    12     8    11    1
    13    11    12   ar
    14    12    13   ar
    15    13    14   ar
    16    14    15   ar
    17    15    16   ar
    18    15    17    1
    19    17    18    2
    20    17    19   am
    21    19    20    1
    22    20    21    1
    23    21    22   ar
    24    22    23   ar
    25    23    24   ar
    26    24    25   ar
    27    25    26   ar
    28    25    27    1
    29    27    28   ar
    30    28    29   ar
    31    29    30   ar
    32    30    31   ar
    33    31    32   ar
    34    32    33   ar
    35    33    34   ar
    36    34    35   ar
    37     6     1   ar
    38    16    11   ar
    39    26    21   ar
    40    35    27   ar
    41    33     4    1
    42    35    31   ar
    43     7    36    1
    44    19    37    1
@<TRIPOS>MOLECULE
*****
 39 44 0 0 0
SMALL
GASTEIGER

@<TRIPOS>ATOM
      1 C         146.2345  142.6795  155.4423 C.ar    1  UNL1        0.2400
      2 N         147.2487  142.9458  156.5149 N.ar    1  UNL1       -0.2090
      3 C         146.8582  142.8397  157.9593 C.ar    1  UNL1        0.1026
      4 C         145.5391  142.4894  158.6764 C.ar    1  UNL1        0.0267
      5 C         145.4283  142.4629  157.1807 C.ar    1  UNL1        0.0226
      6 C         144.8298  142.3072  155.8142 C.ar    1  UNL1        0.1178
      7 N         143.8156  142.0409  154.7416 N.pl3   1  UNL1       -0.2104
      8 S         142.5080  141.6962  154.0923 S.O2    1  UNL1        0.0737
      9 O         142.0668  141.5822  152.6632 O.2     1  UNL1       -0.1499
     10 O         143.6017  141.9874  153.1078 O.2     1  UNL1       -0.1499
     11 C         141.0648  141.3147  153.9447 C.ar    1  UNL1        0.1253
     12 C         140.4663  141.1589  152.5782 C.ar    1  UNL1        0.0202
     13 C         139.0232  140.7774  152.4306 C.ar    1  UNL1        0.0015
     14 C         138.1786  140.5516  153.6495 C.ar    1  UNL1        0.0046
     15 C         138.7772  140.7074  155.0160 C.ar    1  UNL1        0.0547
     16 C         140.2203  141.0889  155.1636 C.ar    1  UNL1        0.0247
     17 C         137.6188  140.3983  156.3818 C.2     1  UNL1        0.2461
     18 O         136.3113  140.0536  155.7326 O.2     1  UNL1       -0.2701
     19 N         137.2285  140.2923  157.8263 N.am    1  UNL1       -0.2969
     20 C         137.3392  140.3187  159.3219 C.3     1  UNL1        0.1166
     21 C         137.9378  140.4744  160.6885 C.ar    1  UNL1       -0.0025
     22 C         137.3732  140.3224  162.1151 C.ar    1  UNL1       -0.0026
     23 C         137.9719  140.4781  163.4816 C.ar    1  UNL1       -0.0002
     24 C         139.4150  140.8596  163.6292 C.ar    1  UNL1        0.0015
     25 C         140.2595  141.0854  162.4103 C.ar    1  UNL1        0.0175
     26 C         138.9520  140.7407  161.7611 C.ar    1  UNL1       -0.0011
     27 C         141.7026  141.4669  162.5579 C.ar    1  UNL1        0.0850
     28 N         141.3122  141.3609  164.0024 N.ar    1  UNL1       -0.2239
     29 C         142.3265  141.6272  165.0749 C.ar    1  UNL1        0.1993
     30 N         143.7311  141.9995  164.7032 N.ar    1  UNL1       -0.2173
     31 C         144.1216  142.1056  163.2587 C.ar    1  UNL1        0.1139
     32 S         145.3051  142.4204  162.3925 S.2     1  UNL1       -0.0679
     33 C         145.1486  142.3833  160.1207 C.ar    1  UNL1        0.0325
     34 C         144.3041  142.1575  161.3397 C.ar    1  UNL1        0.0101
     35 C         143.1074  141.8393  162.1861 C.ar    1  UNL1        0.0421
     36 H         144.3699  142.1891  153.9415 H       1  UNL1        0.1739
     37 H         136.2813  140.0418  157.7294 H       1  UNL1        0.1501
     38 C         147.1716  141.5881  153.2789 C.3     1  UNL1        0.2543
     39 O         146.6249  142.7856  153.9980 O.3     1  UNL1       -0.4553
@<TRIPOS>BOND
     1    38    39    1
     2    39     1    1
     3     1     2   ar
     4     2     3   ar
     5     3     4   ar
     6     4     5   ar
     7     5     6   ar
     8     6     7    1
     9     7     8    1
    10     8     9    2
    11     8    10    2
    12     8    11    1
    13    11    12   ar
    14    12    13   ar
    15    13    14   ar
    16    14    15   ar
    17    15    16   ar
    18    15    17    1
    19    17    18    2
    20    17    19   am
    21    19    20    1
    22    20    21    1
    23    21    22   ar
    24    22    23   ar
    25    23    24   ar
    26    24    25   ar
    27    25    26   ar
    28    25    27    1
    29    27    28   ar
    30    28    29   ar
    31    29    30   ar
    32    30    31   ar
    33    31    32   ar
    34    32    33   ar
    35    33    34   ar
    36    34    35   ar
    37     6     1   ar
    38    16    11   ar
    39    26    21   ar
    40    35    27   ar
    41    33     4    1
    42    35    31   ar
    43     7    36    1
    44    19    37    1
@<TRIPOS>MOLECULE
*****
 39 44 0 0 0
SMALL
GASTEIGER

@<TRIPOS>ATOM
      1 C         140.8509  137.3870  154.1334 C.ar    1  UNL1        0.2400
      2 N         139.6165  136.7683  154.7195 N.ar    1  UNL1       -0.2090
      3 C         139.2441  137.0444  156.1460 C.ar    1  UNL1        0.1026
      4 C         139.8856  137.8922  157.2626 C.ar    1  UNL1        0.0267
      5 C         140.6496  137.9316  155.9723 C.ar    1  UNL1        0.0226
      6 C         141.7129  138.2817  154.9739 C.ar    1  UNL1        0.1178
      7 N         142.9473  138.9003  154.3878 N.pl3   1  UNL1       -0.2104
      8 S         144.2040  139.7129  154.2848 S.O2    1  UNL1        0.0737
      9 O         145.1802  139.9624  153.1737 O.2     1  UNL1       -0.1499
     10 O         143.8500  139.0021  153.0122 O.2     1  UNL1       -0.1499
     11 C         145.3313  140.6213  154.6772 C.ar    1  UNL1        0.1253
     12 C         146.3946  140.9715  153.6788 C.ar    1  UNL1        0.0202
     13 C         147.5219  141.8798  154.0712 C.ar    1  UNL1        0.0015
     14 C         147.5859  142.4381  155.4620 C.ar    1  UNL1        0.0046
     15 C         146.5226  142.0880  156.4604 C.ar    1  UNL1        0.0547
     16 C         145.3953  141.1796  156.0680 C.ar    1  UNL1        0.0247
     17 C         146.7500  142.8474  158.0957 C.2     1  UNL1        0.2461
     18 O         148.0066  143.6600  157.9927 O.2     1  UNL1       -0.2701
     19 N         146.3775  143.1235  159.5222 N.am    1  UNL1       -0.2969
     20 C         145.6136  143.0841  160.8125 C.3     1  UNL1        0.1166
     21 C         144.5502  142.7339  161.8109 C.ar    1  UNL1       -0.0025
     22 C         144.3138  143.1196  163.2848 C.ar    1  UNL1       -0.0026
     23 C         143.2504  142.7694  164.2832 C.ar    1  UNL1       -0.0002
     24 C         142.1232  141.8610  163.8908 C.ar    1  UNL1        0.0015
     25 C         142.0592  141.3028  162.5000 C.ar    1  UNL1        0.0175
     26 C         143.3158  142.1153  162.3970 C.ar    1  UNL1       -0.0011
     27 C         140.9319  140.3944  162.1076 C.ar    1  UNL1        0.0850
     28 N         140.5594  140.6704  163.5343 N.ar    1  UNL1       -0.2239
     29 C         139.3250  140.0518  164.1202 C.ar    1  UNL1        0.1993
     30 N         138.4630  139.1570  163.2798 N.ar    1  UNL1       -0.2173
     31 C         138.8355  138.8810  161.8532 C.ar    1  UNL1        0.1139
     32 S         138.3615  138.1158  160.6532 S.2     1  UNL1       -0.0679
     33 C         139.5132  138.1683  158.6891 C.ar    1  UNL1        0.0325
     34 C         139.5772  138.7265  160.0799 C.ar    1  UNL1        0.0101
     35 C         140.0699  139.4996  161.2671 C.ar    1  UNL1        0.0421
     36 H         142.9053  138.5339  153.4750 H       1  UNL1        0.1739
     37 H         147.1174  143.7197  159.7798 H       1  UNL1        0.1501
     38 C         141.5092  135.7064  152.2646 C.3     1  UNL1        0.2543
     39 O         141.2233  137.1109  152.7069 O.3     1  UNL1       -0.4553
@<TRIPOS>BOND
     1    38    39    1
     2    39     1    1
     3     1     2   ar
     4     2     3   ar
     5     3     4   ar
     6     4     5   ar
     7     5     6   ar
     8     6     7    1
     9     7     8    1
    10     8     9    2
    11     8    10    2
    12     8    11    1
    13    11    12   ar
    14    12    13   ar
    15    13    14   ar
    16    14    15   ar
    17    15    16   ar
    18    15    17    1
    19    17    18    2
    20    17    19   am
    21    19    20    1
    22    20    21    1
    23    21    22   ar
    24    22    23   ar
    25    23    24   ar
    26    24    25   ar
    27    25    26   ar
    28    25    27    1
    29    27    28   ar
    30    28    29   ar
    31    29    30   ar
    32    30    31   ar
    33    31    32   ar
    34    32    33   ar
    35    33    34   ar
    36    34    35   ar
    37     6     1   ar
    38    16    11   ar
    39    26    21   ar
    40    35    27   ar
    41    33     4    1
    42    35    31   ar
    43     7    36    1
    44    19    37    1
