@<TRIPOS>MOLECULE
*****
 35 38 0 0 0
SMALL
GASTEIGER

@<TRIPOS>ATOM
      1 C         140.5298  140.0092  170.0137 C.3     1  UNL1        0.1459
      2 O         140.3819  140.1649  171.4982 O.3     1  UNL1       -0.3813
      3 H         139.4707  140.4240  171.7069 H       1  UNL1        0.2105
      4 C         139.3548  140.2516  169.1133 C.3     1  UNL1        0.1204
      5 O         137.3757  138.4750  167.7253 O.2     1  UNL1       -0.2684
      6 C         138.4861  139.1141  166.9451 C.2     1  UNL1        0.2649
      7 N         139.4756  140.0024  167.6391 N.am    1  UNL1       -0.2972
      8 H         140.2044  140.4218  167.1271 H       1  UNL1        0.1499
      9 C         138.6069  138.8649  165.4709 C.2     1  UNL1        0.1501
     10 N         138.9951  137.5056  164.9694 N.2     1  UNL1       -0.1516
     11 N         139.1159  137.2564  163.4952 N.am    1  UNL1       -0.0752
     12 C         138.8484  138.3664  162.5225 C.2     1  UNL1        0.2858
     13 O         138.9692  138.1172  161.0483 O.2     1  UNL1       -0.2665
     14 C         138.4601  139.7258  163.0240 C.2     1  UNL1        0.0548
     15 C         138.1927  140.8358  162.0513 C.2     1  UNL1        0.0040
     16 C         137.8044  142.1951  162.5528 C.2     1  UNL1       -0.0041
     17 C         137.6836  142.4443  164.0270 C.2     1  UNL1       -0.0214
     18 C         137.9511  141.3343  164.9997 C.3     1  UNL1        0.0542
     19 C         138.3393  139.9750  164.4982 C.2     1  UNL1        0.0104
     20 C         141.8527  139.6109  169.4295 C.3     1  UNL1        0.1034
     21 N         142.3910  140.3333  168.2302 N.3     1  UNL1       -0.2704
     22 C         142.5635  139.6045  166.9306 C.3     1  UNL1        0.0759
     23 C         143.1017  140.3269  165.7312 C.3     1  UNL1        0.0609
     24 C         143.4674  141.7782  165.8315 C.3     1  UNL1        0.1687
     25 C         143.2949  142.5070  167.1311 C.3     1  UNL1        0.0609
     26 C         142.7567  141.7846  168.3305 C.3     1  UNL1        0.0759
     27 O         144.0056  142.5006  164.6322 O.3     1  UNL1       -0.4790
     28 C         143.0677  143.2068  163.6986 C.ar    1  UNL1        0.1393
     29 C         143.3862  143.2883  162.2352 C.ar    1  UNL1        0.0378
     30 C         142.4483  143.9946  161.3016 C.ar    1  UNL1        0.0154
     31 C         141.1918  144.6194  161.8316 C.ar    1  UNL1        0.0684
     32 CL        140.2539  145.3257  160.8981 Cl      1  UNL1       -0.0814
     33 C         140.8733  144.5379  163.2951 C.ar    1  UNL1        0.0712
     34 CL        139.6168  145.1627  163.8251 Cl      1  UNL1       -0.0813
     35 C         141.8112  143.8316  164.2286 C.ar    1  UNL1        0.0491
@<TRIPOS>BOND
     1     5     6    2
     2     6     7   am
     3     7     4    1
     4     4     1    1
     5     1     2    1
     6     1    20    1
     7    20    21    1
     8    21    22    1
     9    22    23    1
    10    23    24    1
    11    24    27    1
    12    27    28    1
    13    28    29   ar
    14    29    30   ar
    15    30    31   ar
    16    31    32    1
    17    31    33   ar
    18    33    34    1
    19    33    35   ar
    20    24    25    1
    21    25    26    1
    22     6     9    1
    23     9    10    1
    24    10    11    2
    25    11    12    1
    26    12    13    2
    27    12    14    1
    28    14    15    2
    29    15    16    1
    30    16    17    2
    31    17    18    1
    32    18    19    1
    33    26    21    1
    34    19     9    2
    35    35    28   ar
    36    19    14    1
    37     7     8    1
    38     2     3    1
@<TRIPOS>MOLECULE
*****
 35 38 0 0 0
SMALL
GASTEIGER

@<TRIPOS>ATOM
      1 C         141.9632  144.9551  158.1016 C.3     1  UNL1        0.1459
      2 O         142.5624  146.2981  157.8061 O.3     1  UNL1       -0.3813
      3 H         143.5216  146.2067  157.6944 H       1  UNL1        0.2105
      4 C         142.8427  143.7425  158.1812 C.3     1  UNL1        0.1204
      5 O         145.4187  142.6981  159.3098 O.2     1  UNL1       -0.2684
      6 C         144.1173  142.3637  159.9768 C.2     1  UNL1        0.2649
      7 N         142.8294  142.8859  159.4125 N.am    1  UNL1       -0.2972
      8 H         141.9753  142.6664  159.8502 H       1  UNL1        0.1499
      9 C         144.1039  141.5070  161.2081 C.2     1  UNL1        0.1501
     10 N         144.1187  140.0125  161.0821 N.2     1  UNL1       -0.1516
     11 N         144.1053  139.1558  162.3133 N.am    1  UNL1       -0.0752
     12 C         144.0772  139.7938  163.6706 C.2     1  UNL1        0.2858
     13 O         144.0639  138.9372  164.9018 O.2     1  UNL1       -0.2665
     14 C         144.0625  141.2885  163.7966 C.2     1  UNL1        0.0548
     15 C         144.0345  141.9264  165.1539 C.2     1  UNL1        0.0040
     16 C         144.0198  143.4210  165.2798 C.2     1  UNL1       -0.0041
     17 C         144.0331  144.2777  164.0486 C.2     1  UNL1       -0.0214
     18 C         144.0612  143.6397  162.6913 C.3     1  UNL1        0.0542
     19 C         144.0759  142.1451  162.5654 C.2     1  UNL1        0.0104
     20 C         140.4846  144.8246  158.3174 C.3     1  UNL1        0.1034
     21 N         139.9421  144.6443  159.7042 N.3     1  UNL1       -0.2704
     22 C         139.2377  143.3729  160.0747 C.3     1  UNL1        0.0759
     23 C         138.6953  143.1926  161.4614 C.3     1  UNL1        0.0609
     24 C         138.8572  144.2839  162.4779 C.3     1  UNL1        0.1687
     25 C         139.5616  145.5553  162.1074 C.3     1  UNL1        0.0609
     26 C         140.1041  145.7355  160.7206 C.3     1  UNL1        0.0759
     27 O         138.3147  144.1036  163.8646 O.3     1  UNL1       -0.4790
     28 C         138.8923  143.0522  164.7651 C.ar    1  UNL1        0.1393
     29 C         140.0856  143.3677  165.6174 C.ar    1  UNL1        0.0378
     30 C         140.6632  142.3162  166.5179 C.ar    1  UNL1        0.0154
     31 C         140.0475  140.9493  166.5662 C.ar    1  UNL1        0.0684
     32 CL        140.6250  139.8979  167.4667 Cl      1  UNL1       -0.0814
     33 C         138.8541  140.6338  165.7139 C.ar    1  UNL1        0.0712
     34 CL        138.2383  139.2669  165.7621 Cl      1  UNL1       -0.0813
     35 C         138.2766  141.6853  164.8134 C.ar    1  UNL1        0.0491
@<TRIPOS>BOND
     1     5     6    2
     2     6     7   am
     3     7     4    1
     4     4     1    1
     5     1     2    1
     6     1    20    1
     7    20    21    1
     8    21    22    1
     9    22    23    1
    10    23    24    1
    11    24    27    1
    12    27    28    1
    13    28    29   ar
    14    29    30   ar
    15    30    31   ar
    16    31    32    1
    17    31    33   ar
    18    33    34    1
    19    33    35   ar
    20    24    25    1
    21    25    26    1
    22     6     9    1
    23     9    10    1
    24    10    11    2
    25    11    12    1
    26    12    13    2
    27    12    14    1
    28    14    15    2
    29    15    16    1
    30    16    17    2
    31    17    18    1
    32    18    19    1
    33    26    21    1
    34    19     9    2
    35    35    28   ar
    36    19    14    1
    37     7     8    1
    38     2     3    1
@<TRIPOS>MOLECULE
*****
 35 38 0 0 0
SMALL
GASTEIGER

@<TRIPOS>ATOM
      1 C         137.8911  139.4592  160.6283 C.3     1  UNL1        0.1459
      2 O         136.4257  139.5114  160.3125 O.3     1  UNL1       -0.3813
      3 H         136.2519  140.2475  159.7052 H       1  UNL1        0.2105
      4 C         138.8256  140.4628  160.0203 C.3     1  UNL1        0.1204
      5 O         141.4071  139.0340  159.4776 O.2     1  UNL1       -0.2684
      6 C         141.3637  140.1501  160.4789 C.2     1  UNL1        0.2649
      7 N         140.0730  140.8645  160.7502 N.am    1  UNL1       -0.2972
      8 H         140.0445  141.5971  161.4073 H       1  UNL1        0.1499
      9 C         142.6111  140.5519  161.2087 C.2     1  UNL1        0.1501
     10 N         143.5363  141.5689  160.6091 N.2     1  UNL1       -0.1516
     11 N         144.7836  141.9706  161.3390 N.am    1  UNL1       -0.0752
     12 C         145.1058  141.3553  162.6685 C.2     1  UNL1        0.2858
     13 O         146.3532  141.7570  163.3983 O.2     1  UNL1       -0.2665
     14 C         144.1806  140.3382  163.2681 C.2     1  UNL1        0.0548
     15 C         144.5027  139.7228  164.5976 C.2     1  UNL1        0.0040
     16 C         143.5775  138.7058  165.1972 C.2     1  UNL1       -0.0041
     17 C         142.3302  138.3041  164.4673 C.2     1  UNL1       -0.0214
     18 C         142.0080  138.9194  163.1379 C.3     1  UNL1        0.0542
     19 C         142.9332  139.9365  162.5383 C.2     1  UNL1        0.0104
     20 C         138.4222  138.4035  161.5522 C.3     1  UNL1        0.1034
     21 N         138.4545  138.6487  163.0316 N.3     1  UNL1       -0.2704
     22 C         138.1198  140.0065  163.5743 C.3     1  UNL1        0.0759
     23 C         138.1521  140.2517  165.0537 C.3     1  UNL1        0.0609
     24 C         138.5191  139.1392  165.9905 C.3     1  UNL1        0.1687
     25 C         138.8538  137.7814  165.4479 C.3     1  UNL1        0.0609
     26 C         138.8215  137.5362  163.9684 C.3     1  UNL1        0.0759
     27 O         138.5514  139.3844  167.4700 O.3     1  UNL1       -0.4790
     28 C         139.6981  140.1337  168.0811 C.ar    1  UNL1        0.1393
     29 C         139.7440  140.3555  169.5639 C.ar    1  UNL1        0.0378
     30 C         140.8907  141.1049  170.1751 C.ar    1  UNL1        0.0154
     31 C         141.9916  141.6324  169.3035 C.ar    1  UNL1        0.0684
     32 CL        143.1383  142.3818  169.9147 Cl      1  UNL1       -0.0814
     33 C         141.9457  141.4107  167.8207 C.ar    1  UNL1        0.0712
     34 CL        143.0466  141.9382  166.9490 Cl      1  UNL1       -0.0813
     35 C         140.7990  140.6613  167.2095 C.ar    1  UNL1        0.0491
@<TRIPOS>BOND
     1     5     6    2
     2     6     7   am
     3     7     4    1
     4     4     1    1
     5     1     2    1
     6     1    20    1
     7    20    21    1
     8    21    22    1
     9    22    23    1
    10    23    24    1
    11    24    27    1
    12    27    28    1
    13    28    29   ar
    14    29    30   ar
    15    30    31   ar
    16    31    32    1
    17    31    33   ar
    18    33    34    1
    19    33    35   ar
    20    24    25    1
    21    25    26    1
    22     6     9    1
    23     9    10    1
    24    10    11    2
    25    11    12    1
    26    12    13    2
    27    12    14    1
    28    14    15    2
    29    15    16    1
    30    16    17    2
    31    17    18    1
    32    18    19    1
    33    26    21    1
    34    19     9    2
    35    35    28   ar
    36    19    14    1
    37     7     8    1
    38     2     3    1
@<TRIPOS>MOLECULE
*****
 35 38 0 0 0
SMALL
GASTEIGER

@<TRIPOS>ATOM
      1 C         141.6516  145.2176  158.2051 C.3     1  UNL1        0.1459
      2 O         142.5678  146.3225  157.7695 O.3     1  UNL1       -0.3813
      3 H         142.3589  147.1299  158.2649 H       1  UNL1        0.2105
      4 C         140.6162  145.4737  159.2599 C.3     1  UNL1        0.1204
      5 O         139.9147  146.6892  161.9114 O.2     1  UNL1       -0.2684
      6 C         140.2194  145.2235  161.8153 C.2     1  UNL1        0.2649
      7 N         140.5702  144.6158  160.4895 N.am    1  UNL1       -0.2972
      8 H         140.7702  143.6539  160.4264 H       1  UNL1        0.1499
      9 C         140.1734  144.3657  163.0449 C.2     1  UNL1        0.1501
     10 N         138.8576  143.8602  163.5579 N.2     1  UNL1       -0.1516
     11 N         138.8116  143.0024  164.7875 N.am    1  UNL1       -0.0752
     12 C         140.0813  142.6500  165.5042 C.2     1  UNL1        0.2858
     13 O         140.0352  141.7922  166.7338 O.2     1  UNL1       -0.2665
     14 C         141.3971  143.1556  164.9912 C.2     1  UNL1        0.0548
     15 C         142.6668  142.8032  165.7079 C.2     1  UNL1        0.0040
     16 C         143.9826  143.3087  165.1949 C.2     1  UNL1       -0.0041
     17 C         144.0286  144.1666  163.9653 C.2     1  UNL1       -0.0214
     18 C         142.7589  144.5189  163.2486 C.3     1  UNL1        0.0542
     19 C         141.4432  144.0134  163.7616 C.2     1  UNL1        0.0104
     20 C         141.7707  143.8565  157.5859 C.3     1  UNL1        0.1034
     21 N         142.3754  142.7276  158.3668 N.3     1  UNL1       -0.2704
     22 C         143.5229  142.9890  159.2967 C.3     1  UNL1        0.0759
     23 C         144.1276  141.8601  160.0776 C.3     1  UNL1        0.0609
     24 C         143.5848  140.4697  159.9286 C.3     1  UNL1        0.1687
     25 C         142.4372  140.2083  158.9987 C.3     1  UNL1        0.0609
     26 C         141.8325  141.3373  158.2177 C.3     1  UNL1        0.0759
     27 O         144.1895  139.3408  160.7095 O.3     1  UNL1       -0.4790
     28 C         143.8757  139.1851  162.1680 C.ar    1  UNL1        0.1393
     29 C         144.6990  139.9066  163.1935 C.ar    1  UNL1        0.0378
     30 C         144.3852  139.7508  164.6520 C.ar    1  UNL1        0.0154
     31 C         143.2481  138.8736  165.0851 C.ar    1  UNL1        0.0684
     32 CL        142.9344  138.7179  166.5436 Cl      1  UNL1       -0.0814
     33 C         142.4249  138.1521  164.0596 C.ar    1  UNL1        0.0712
     34 CL        141.2878  137.2749  164.4926 Cl      1  UNL1       -0.0813
     35 C         142.7387  138.3078  162.6011 C.ar    1  UNL1        0.0491
@<TRIPOS>BOND
     1     5     6    2
     2     6     7   am
     3     7     4    1
     4     4     1    1
     5     1     2    1
     6     1    20    1
     7    20    21    1
     8    21    22    1
     9    22    23    1
    10    23    24    1
    11    24    27    1
    12    27    28    1
    13    28    29   ar
    14    29    30   ar
    15    30    31   ar
    16    31    32    1
    17    31    33   ar
    18    33    34    1
    19    33    35   ar
    20    24    25    1
    21    25    26    1
    22     6     9    1
    23     9    10    1
    24    10    11    2
    25    11    12    1
    26    12    13    2
    27    12    14    1
    28    14    15    2
    29    15    16    1
    30    16    17    2
    31    17    18    1
    32    18    19    1
    33    26    21    1
    34    19     9    2
    35    35    28   ar
    36    19    14    1
    37     7     8    1
    38     2     3    1
@<TRIPOS>MOLECULE
*****
 35 38 0 0 0
SMALL
GASTEIGER

@<TRIPOS>ATOM
      1 C         144.3289  142.3055  159.3590 C.3     1  UNL1        0.1459
      2 O         144.7124  141.4803  158.1666 O.3     1  UNL1       -0.3813
      3 H         144.0767  141.6326  157.4500 H       1  UNL1        0.2105
      4 C         143.1166  143.1871  159.3025 C.3     1  UNL1        0.1204
      5 O         141.5406  145.6391  160.0123 O.2     1  UNL1       -0.2684
      6 C         141.3088  144.3572  160.7559 C.2     1  UNL1        0.2649
      7 N         142.0968  143.1312  160.4010 N.am    1  UNL1       -0.2972
      8 H         141.9446  142.2899  160.8891 H       1  UNL1        0.1499
      9 C         140.2889  144.3013  161.8544 C.2     1  UNL1        0.1501
     10 N         138.8730  144.7167  161.5851 N.2     1  UNL1       -0.1516
     11 N         137.8531  144.6608  162.6836 N.am    1  UNL1       -0.0752
     12 C         138.2491  144.1895  164.0515 C.2     1  UNL1        0.2858
     13 O         137.2292  144.1335  165.1500 O.2     1  UNL1       -0.2665
     14 C         139.6651  143.7740  164.3208 C.2     1  UNL1        0.0548
     15 C         140.0611  143.3027  165.6886 C.2     1  UNL1        0.0040
     16 C         141.4770  142.8873  165.9579 C.2     1  UNL1       -0.0041
     17 C         142.4969  142.9432  164.8594 C.2     1  UNL1       -0.0214
     18 C         142.1009  143.4145  163.4916 C.3     1  UNL1        0.0542
     19 C         140.6850  143.8299  163.2223 C.2     1  UNL1        0.0104
     20 C         145.1577  142.2491  160.6081 C.3     1  UNL1        0.1034
     21 N         144.7522  141.3487  161.7372 N.3     1  UNL1       -0.2704
     22 C         145.4190  141.4763  163.0747 C.3     1  UNL1        0.0759
     23 C         145.0135  140.5759  164.2038 C.3     1  UNL1        0.0609
     24 C         143.9411  139.5479  163.9954 C.3     1  UNL1        0.1687
     25 C         143.2743  139.4204  162.6578 C.3     1  UNL1        0.0609
     26 C         143.6799  140.3208  161.5287 C.3     1  UNL1        0.0759
     27 O         143.5357  138.6476  165.1245 O.3     1  UNL1       -0.4790
     28 C         142.4784  139.0886  166.0928 C.ar    1  UNL1        0.1393
     29 C         142.8501  139.4288  167.5056 C.ar    1  UNL1        0.0378
     30 C         141.7928  139.8698  168.4739 C.ar    1  UNL1        0.0154
     31 C         140.3637  139.9706  168.0294 C.ar    1  UNL1        0.0684
     32 CL        139.3064  140.4115  168.9977 Cl      1  UNL1       -0.0814
     33 C         139.9920  139.6303  166.6166 C.ar    1  UNL1        0.0712
     34 CL        138.5629  139.7311  166.1721 Cl      1  UNL1       -0.0813
     35 C         141.0493  139.1894  165.6483 C.ar    1  UNL1        0.0491
@<TRIPOS>BOND
     1     5     6    2
     2     6     7   am
     3     7     4    1
     4     4     1    1
     5     1     2    1
     6     1    20    1
     7    20    21    1
     8    21    22    1
     9    22    23    1
    10    23    24    1
    11    24    27    1
    12    27    28    1
    13    28    29   ar
    14    29    30   ar
    15    30    31   ar
    16    31    32    1
    17    31    33   ar
    18    33    34    1
    19    33    35   ar
    20    24    25    1
    21    25    26    1
    22     6     9    1
    23     9    10    1
    24    10    11    2
    25    11    12    1
    26    12    13    2
    27    12    14    1
    28    14    15    2
    29    15    16    1
    30    16    17    2
    31    17    18    1
    32    18    19    1
    33    26    21    1
    34    19     9    2
    35    35    28   ar
    36    19    14    1
    37     7     8    1
    38     2     3    1
@<TRIPOS>MOLECULE
*****
 35 38 0 0 0
SMALL
GASTEIGER

@<TRIPOS>ATOM
      1 C         142.4214  138.5098  158.5516 C.3     1  UNL1        0.1459
      2 O         143.4037  138.6490  157.4266 O.3     1  UNL1       -0.3813
      3 H         143.0280  139.2198  156.7382 H       1  UNL1        0.2105
      4 C         141.0959  139.2084  158.4807 C.3     1  UNL1        0.1204
      5 O         138.1799  139.7261  158.9599 O.2     1  UNL1       -0.2684
      6 C         139.2109  140.3801  159.8313 C.2     1  UNL1        0.2649
      7 N         140.6689  140.1213  159.5918 N.am    1  UNL1       -0.2972
      8 H         141.3455  140.5505  160.1637 H       1  UNL1        0.1499
      9 C         138.7839  141.2930  160.9424 C.2     1  UNL1        0.1501
     10 N         138.4670  142.7301  160.6523 N.2     1  UNL1       -0.1516
     11 N         138.0400  143.6430  161.7633 N.am    1  UNL1       -0.0752
     12 C         137.9299  143.1187  163.1644 C.2     1  UNL1        0.2858
     13 O         137.5029  144.0316  164.2754 O.2     1  UNL1       -0.2665
     14 C         138.2469  141.6815  163.4545 C.2     1  UNL1        0.0548
     15 C         138.1368  141.1572  164.8555 C.2     1  UNL1        0.0040
     16 C         138.4537  139.7201  165.1455 C.2     1  UNL1       -0.0041
     17 C         138.8807  138.8072  164.0345 C.2     1  UNL1       -0.0214
     18 C         138.9908  139.3315  162.6335 C.3     1  UNL1        0.0542
     19 C         138.6739  140.7686  162.3435 C.2     1  UNL1        0.0104
     20 C         142.7646  137.6719  159.7476 C.3     1  UNL1        0.1034
     21 N         143.0874  138.3297  161.0564 N.3     1  UNL1       -0.2704
     22 C         144.0976  139.4372  161.1102 C.3     1  UNL1        0.0759
     23 C         144.4204  140.0949  162.4191 C.3     1  UNL1        0.0609
     24 C         143.7330  139.6452  163.6742 C.3     1  UNL1        0.1687
     25 C         142.7228  138.5377  163.6204 C.3     1  UNL1        0.0609
     26 C         142.4000  137.8799  162.3114 C.3     1  UNL1        0.0759
     27 O         144.0558  140.3029  164.9831 O.3     1  UNL1       -0.4790
     28 C         142.9747  140.5204  165.9999 C.ar    1  UNL1        0.1393
     29 C         142.7596  139.5155  167.0925 C.ar    1  UNL1        0.0378
     30 C         141.6785  139.7330  168.1094 C.ar    1  UNL1        0.0154
     31 C         140.8126  140.9555  168.0336 C.ar    1  UNL1        0.0684
     32 CL        139.7315  141.1730  169.0505 Cl      1  UNL1       -0.0814
     33 C         141.0277  141.9604  166.9410 C.ar    1  UNL1        0.0712
     34 CL        140.1618  143.1829  166.8652 Cl      1  UNL1       -0.0813
     35 C         142.1088  141.7428  165.9242 C.ar    1  UNL1        0.0491
@<TRIPOS>BOND
     1     5     6    2
     2     6     7   am
     3     7     4    1
     4     4     1    1
     5     1     2    1
     6     1    20    1
     7    20    21    1
     8    21    22    1
     9    22    23    1
    10    23    24    1
    11    24    27    1
    12    27    28    1
    13    28    29   ar
    14    29    30   ar
    15    30    31   ar
    16    31    32    1
    17    31    33   ar
    18    33    34    1
    19    33    35   ar
    20    24    25    1
    21    25    26    1
    22     6     9    1
    23     9    10    1
    24    10    11    2
    25    11    12    1
    26    12    13    2
    27    12    14    1
    28    14    15    2
    29    15    16    1
    30    16    17    2
    31    17    18    1
    32    18    19    1
    33    26    21    1
    34    19     9    2
    35    35    28   ar
    36    19    14    1
    37     7     8    1
    38     2     3    1
@<TRIPOS>MOLECULE
*****
 35 38 0 0 0
SMALL
GASTEIGER

@<TRIPOS>ATOM
      1 C         140.2021  140.9308  169.5514 C.3     1  UNL1        0.1459
      2 O         140.7963  140.4641  170.8472 O.3     1  UNL1       -0.3813
      3 H         140.4752  139.5708  171.0469 H       1  UNL1        0.2105
      4 C         139.2669  140.0383  168.7905 C.3     1  UNL1        0.1204
      5 O         137.2051  138.5358  167.2121 O.2     1  UNL1       -0.2684
      6 C         138.4083  139.1072  166.5221 C.2     1  UNL1        0.2649
      7 N         139.4391  139.8584  167.3113 N.am    1  UNL1       -0.2972
      8 H         140.2288  140.2335  166.8585 H       1  UNL1        0.1499
      9 C         138.5805  138.9274  165.0429 C.2     1  UNL1        0.1501
     10 N         139.0129  137.6001  164.4941 N.2     1  UNL1       -0.1516
     11 N         139.1851  137.4202  163.0149 N.am    1  UNL1       -0.0752
     12 C         138.9249  138.5677  162.0845 C.2     1  UNL1        0.2858
     13 O         139.0971  138.3878  160.6054 O.2     1  UNL1       -0.2665
     14 C         138.4924  139.8950  162.6334 C.2     1  UNL1        0.0548
     15 C         138.2321  141.0425  161.7030 C.2     1  UNL1        0.0040
     16 C         137.7997  142.3698  162.2518 C.2     1  UNL1       -0.0041
     17 C         137.6275  142.5496  163.7310 C.2     1  UNL1       -0.0214
     18 C         137.8877  141.4022  164.6614 C.3     1  UNL1        0.0542
     19 C         138.3202  140.0749  164.1126 C.2     1  UNL1        0.0104
     20 C         140.5430  142.2901  169.0165 C.3     1  UNL1        0.1034
     21 N         141.2076  142.4245  167.6785 N.3     1  UNL1       -0.2704
     22 C         140.4512  143.0048  166.5204 C.3     1  UNL1        0.0759
     23 C         141.1158  143.1392  165.1824 C.3     1  UNL1        0.0609
     24 C         142.5367  142.6934  165.0025 C.3     1  UNL1        0.1687
     25 C         143.2930  142.1131  166.1606 C.3     1  UNL1        0.0609
     26 C         142.6284  141.9787  167.4987 C.3     1  UNL1        0.0759
     27 O         143.2012  142.8278  163.6645 O.3     1  UNL1       -0.4790
     28 C         142.9357  141.8153  162.5901 C.ar    1  UNL1        0.1393
     29 C         141.9740  142.1311  161.4831 C.ar    1  UNL1        0.0378
     30 C         141.7085  141.1186  160.4087 C.ar    1  UNL1        0.0154
     31 C         142.4047  139.7904  160.4412 C.ar    1  UNL1        0.0684
     32 CL        142.1392  138.7779  159.3668 Cl      1  UNL1       -0.0814
     33 C         143.3664  139.4746  161.5482 C.ar    1  UNL1        0.0712
     34 CL        144.0627  138.1464  161.5808 Cl      1  UNL1       -0.0813
     35 C         143.6319  140.4871  162.6226 C.ar    1  UNL1        0.0491
@<TRIPOS>BOND
     1     5     6    2
     2     6     7   am
     3     7     4    1
     4     4     1    1
     5     1     2    1
     6     1    20    1
     7    20    21    1
     8    21    22    1
     9    22    23    1
    10    23    24    1
    11    24    27    1
    12    27    28    1
    13    28    29   ar
    14    29    30   ar
    15    30    31   ar
    16    31    32    1
    17    31    33   ar
    18    33    34    1
    19    33    35   ar
    20    24    25    1
    21    25    26    1
    22     6     9    1
    23     9    10    1
    24    10    11    2
    25    11    12    1
    26    12    13    2
    27    12    14    1
    28    14    15    2
    29    15    16    1
    30    16    17    2
    31    17    18    1
    32    18    19    1
    33    26    21    1
    34    19     9    2
    35    35    28   ar
    36    19    14    1
    37     7     8    1
    38     2     3    1
@<TRIPOS>MOLECULE
*****
 35 38 0 0 0
SMALL
GASTEIGER

@<TRIPOS>ATOM
      1 C         138.5312  141.3853  158.2256 C.3     1  UNL1        0.1459
      2 O         137.1967  141.5301  157.5561 O.3     1  UNL1       -0.3813
      3 H         137.0441  142.4628  157.3377 H       1  UNL1        0.2105
      4 C         139.3903  142.5934  158.4549 C.3     1  UNL1        0.1204
      5 O         139.7315  145.0936  160.0774 O.2     1  UNL1       -0.2684
      6 C         140.5299  143.8683  160.4109 C.2     1  UNL1        0.2649
      7 N         140.3593  142.6182  159.5997 N.am    1  UNL1       -0.2972
      8 H         140.8833  141.8140  159.8186 H       1  UNL1        0.1499
      9 C         141.4988  143.8931  161.5557 C.2     1  UNL1        0.1501
     10 N         142.9311  144.2698  161.3180 N.2     1  UNL1       -0.1516
     11 N         143.9001  144.2946  162.4627 N.am    1  UNL1       -0.0752
     12 C         143.4368  143.9427  163.8452 C.2     1  UNL1        0.2858
     13 O         144.4057  143.9675  164.9900 O.2     1  UNL1       -0.2665
     14 C         142.0044  143.5659  164.0831 C.2     1  UNL1        0.0548
     15 C         141.5411  143.2140  165.4656 C.2     1  UNL1        0.0040
     16 C         140.1088  142.8372  165.7033 C.2     1  UNL1       -0.0041
     17 C         139.1398  142.8124  164.5586 C.2     1  UNL1       -0.0214
     18 C         139.6032  143.1644  163.1760 C.3     1  UNL1        0.0542
     19 C         141.0355  143.5411  162.9383 C.2     1  UNL1        0.0104
     20 C         139.0066  140.0324  158.6656 C.3     1  UNL1        0.1034
     21 N         138.8689  139.6194  160.1010 N.3     1  UNL1       -0.2704
     22 C         139.6046  138.4148  160.6088 C.3     1  UNL1        0.0759
     23 C         139.4668  138.0018  162.0442 C.3     1  UNL1        0.0609
     24 C         138.5933  138.7933  162.9719 C.3     1  UNL1        0.1687
     25 C         137.8576  139.9978  162.4641 C.3     1  UNL1        0.0609
     26 C         137.9954  140.4108  161.0286 C.3     1  UNL1        0.0759
     27 O         138.4555  138.3802  164.4073 O.3     1  UNL1       -0.4790
     28 C         139.4074  138.9145  165.4361 C.ar    1  UNL1        0.1393
     29 C         138.8883  139.4036  166.7557 C.ar    1  UNL1        0.0378
     30 C         139.8401  139.9379  167.7846 C.ar    1  UNL1        0.0154
     31 C         141.3110  139.9831  167.4939 C.ar    1  UNL1        0.0684
     32 CL        142.2628  140.5174  168.5227 Cl      1  UNL1       -0.0814
     33 C         141.8300  139.4940  166.1743 C.ar    1  UNL1        0.0712
     34 CL        143.3009  139.5392  165.8835 Cl      1  UNL1       -0.0813
     35 C         140.8782  138.9597  165.1454 C.ar    1  UNL1        0.0491
@<TRIPOS>BOND
     1     5     6    2
     2     6     7   am
     3     7     4    1
     4     4     1    1
     5     1     2    1
     6     1    20    1
     7    20    21    1
     8    21    22    1
     9    22    23    1
    10    23    24    1
    11    24    27    1
    12    27    28    1
    13    28    29   ar
    14    29    30   ar
    15    30    31   ar
    16    31    32    1
    17    31    33   ar
    18    33    34    1
    19    33    35   ar
    20    24    25    1
    21    25    26    1
    22     6     9    1
    23     9    10    1
    24    10    11    2
    25    11    12    1
    26    12    13    2
    27    12    14    1
    28    14    15    2
    29    15    16    1
    30    16    17    2
    31    17    18    1
    32    18    19    1
    33    26    21    1
    34    19     9    2
    35    35    28   ar
    36    19    14    1
    37     7     8    1
    38     2     3    1
@<TRIPOS>MOLECULE
*****
 35 38 0 0 0
SMALL
GASTEIGER

@<TRIPOS>ATOM
      1 C         144.3166  142.3749  158.6837 C.3     1  UNL1        0.1459
      2 O         144.3129  143.3596  157.5522 O.3     1  UNL1       -0.3813
      3 H         144.3344  144.2616  157.9085 H       1  UNL1        0.2105
      4 C         144.3501  142.8622  160.1020 C.3     1  UNL1        0.1204
      5 O         144.2599  144.6672  162.4965 O.2     1  UNL1       -0.2684
      6 C         143.0263  143.9305  162.0657 C.2     1  UNL1        0.2649
      7 N         143.0715  143.0280  160.8685 N.am    1  UNL1       -0.2972
      8 H         142.2618  142.5444  160.5857 H       1  UNL1        0.1499
      9 C         141.7476  144.0963  162.8322 C.2     1  UNL1        0.1501
     10 N         140.7292  145.1019  162.3834 N.2     1  UNL1       -0.1516
     11 N         139.4505  145.2677  163.1499 N.am    1  UNL1       -0.0752
     12 C         139.1903  144.4279  164.3651 C.2     1  UNL1        0.2858
     13 O         137.9116  144.5937  165.1316 O.2     1  UNL1       -0.2665
     14 C         140.2087  143.4222  164.8140 C.2     1  UNL1        0.0548
     15 C         139.9485  142.5823  166.0292 C.2     1  UNL1        0.0040
     16 C         140.9669  141.5767  166.4780 C.2     1  UNL1       -0.0041
     17 C         142.2456  141.4109  165.7115 C.2     1  UNL1       -0.0214
     18 C         142.5058  142.2507  164.4963 C.3     1  UNL1        0.0542
     19 C         141.4874  143.2564  164.0475 C.2     1  UNL1        0.0104
     20 C         144.2868  140.9028  158.3969 C.3     1  UNL1        0.1034
     21 N         143.4648  139.9880  159.2556 N.3     1  UNL1       -0.2704
     22 C         144.0561  139.3950  160.5001 C.3     1  UNL1        0.0759
     23 C         143.2341  138.4802  161.3587 C.3     1  UNL1        0.0609
     24 C         141.8207  138.1582  160.9729 C.3     1  UNL1        0.1687
     25 C         141.2294  138.7512  159.7284 C.3     1  UNL1        0.0609
     26 C         142.0515  139.6661  158.8698 C.3     1  UNL1        0.0759
     27 O         140.9988  137.2434  161.8316 O.3     1  UNL1       -0.4790
     28 C         140.2098  137.7999  162.9795 C.ar    1  UNL1        0.1393
     29 C         140.2502  137.1210  164.3164 C.ar    1  UNL1        0.0378
     30 C         139.4612  137.6775  165.4644 C.ar    1  UNL1        0.0154
     31 C         138.6320  138.9131  165.2755 C.ar    1  UNL1        0.0684
     32 CL        137.8430  139.4697  166.4234 Cl      1  UNL1       -0.0814
     33 C         138.5917  139.5920  163.9386 C.ar    1  UNL1        0.0712
     34 CL        137.7624  140.8276  163.7496 Cl      1  UNL1       -0.0813
     35 C         139.3806  139.0355  162.7906 C.ar    1  UNL1        0.0491
@<TRIPOS>BOND
     1     5     6    2
     2     6     7   am
     3     7     4    1
     4     4     1    1
     5     1     2    1
     6     1    20    1
     7    20    21    1
     8    21    22    1
     9    22    23    1
    10    23    24    1
    11    24    27    1
    12    27    28    1
    13    28    29   ar
    14    29    30   ar
    15    30    31   ar
    16    31    32    1
    17    31    33   ar
    18    33    34    1
    19    33    35   ar
    20    24    25    1
    21    25    26    1
    22     6     9    1
    23     9    10    1
    24    10    11    2
    25    11    12    1
    26    12    13    2
    27    12    14    1
    28    14    15    2
    29    15    16    1
    30    16    17    2
    31    17    18    1
    32    18    19    1
    33    26    21    1
    34    19     9    2
    35    35    28   ar
    36    19    14    1
    37     7     8    1
    38     2     3    1
