@<TRIPOS>MOLECULE
*****
 26 28 0 0 0
SMALL
GASTEIGER

@<TRIPOS>ATOM
      1 C         139.2123  138.4114  164.8843 C.ar    1  UNL1        0.1386
      2 C         140.7110  138.4673  164.8560 C.ar    1  UNL1        0.0366
      3 C         141.4599  139.0895  165.9970 C.ar    1  UNL1       -0.0011
      4 C         140.7101  139.6559  167.1663 C.ar    1  UNL1       -0.0206
      5 C         139.2115  139.6000  167.1945 C.ar    1  UNL1       -0.0011
      6 C         138.4625  138.9777  166.0535 C.ar    1  UNL1        0.0366
      7 O         138.4633  137.7891  163.7433 O.3     1  UNL1       -0.4736
      8 C         138.3149  138.5328  162.4491 C.3     1  UNL1        0.2267
      9 C         137.9890  139.9970  162.4586 C.3     1  UNL1        0.1396
     10 C         140.2537  140.8267  161.4930 C.3     1  UNL1        0.1137
     11 N         139.0935  141.0114  162.4255 N.pl3   1  UNL1       -0.2879
     12 C         139.0377  142.2105  163.3250 C.ar    1  UNL1        0.1318
     13 C         139.7942  142.2123  164.6203 C.ar    1  UNL1        0.0343
     14 C         139.7384  143.4113  165.5198 C.ar    1  UNL1        0.0045
     15 C         138.9262  144.6087  165.1240 C.ar    1  UNL1        0.0208
     16 C         138.1697  144.6069  163.8288 C.ar    1  UNL1        0.1003
     17 N         138.2255  143.4078  162.9293 N.ar    1  UNL1       -0.2292
     18 C         141.4591  140.2781  168.3073 C.3     1  UNL1        0.0468
     19 C         140.8014  141.3287  169.1520 C.3     1  UNL1        0.1369
     20 S         140.9930  142.8108  169.0234 S.3     1  UNL1       -0.0482
     21 C         140.1467  143.4798  170.0656 C.2     1  UNL1        0.2792
     22 O         140.0347  144.9580  170.2948 O.2     1  UNL1       -0.2625
     23 N         139.4320  142.4111  170.8384 N.am    1  UNL1       -0.2460
     24 C         139.8367  141.0817  170.2738 C.2     1  UNL1        0.2392
     25 O         139.3602  139.7406  170.7477 O.2     1  UNL1       -0.2737
     26 H         138.8071  142.5567  171.5851 H       1  UNL1        0.1583
@<TRIPOS>BOND
     1    10    11    1
     2    11     9    1
     3     9     8    1
     4     8     7    1
     5     7     1    1
     6     1     2   ar
     7     2     3   ar
     8     3     4   ar
     9     4    18    1
    10    18    19    1
    11    19    20    1
    12    20    21    1
    13    21    22    2
    14    21    23   am
    15    23    24   am
    16    24    25    2
    17     4     5   ar
    18     5     6   ar
    19    11    12    1
    20    12    13   ar
    21    13    14   ar
    22    14    15   ar
    23    15    16   ar
    24    16    17   ar
    25     6     1   ar
    26    17    12   ar
    27    24    19    1
    28    23    26    1
@<TRIPOS>MOLECULE
*****
 26 28 0 0 0
SMALL
GASTEIGER

@<TRIPOS>ATOM
      1 C         138.4768  140.0987  164.1419 C.ar    1  UNL1        0.1386
      2 C         139.5802  141.1095  164.2465 C.ar    1  UNL1        0.0366
      3 C         140.3624  141.2367  165.5200 C.ar    1  UNL1       -0.0011
      4 C         140.0414  140.3532  166.6889 C.ar    1  UNL1       -0.0206
      5 C         138.9380  139.3425  166.5843 C.ar    1  UNL1       -0.0011
      6 C         138.1558  139.2152  165.3108 C.ar    1  UNL1        0.0366
      7 O         137.6945  139.9714  162.8684 O.3     1  UNL1       -0.4736
      8 C         138.1067  138.9684  161.8321 C.3     1  UNL1        0.2267
      9 C         139.1933  137.9798  162.1355 C.3     1  UNL1        0.1396
     10 C         141.0857  138.4060  160.4073 C.3     1  UNL1        0.1137
     11 N         140.6223  138.3191  161.8312 N.pl3   1  UNL1       -0.2879
     12 C         141.5880  138.5714  162.9509 C.ar    1  UNL1        0.1318
     13 C         141.4975  137.7685  164.2147 C.ar    1  UNL1        0.0343
     14 C         142.4632  138.0208  165.3344 C.ar    1  UNL1        0.0045
     15 C         143.5195  139.0760  165.1904 C.ar    1  UNL1        0.0208
     16 C         143.6100  139.8789  163.9266 C.ar    1  UNL1        0.1003
     17 N         142.6443  139.6266  162.8069 N.ar    1  UNL1       -0.2292
     18 C         140.8237  140.4805  167.9625 C.3     1  UNL1        0.0468
     19 C         140.4247  141.4986  168.9892 C.3     1  UNL1        0.1369
     20 S         140.6511  142.9786  168.8977 S.3     1  UNL1       -0.0482
     21 C         140.0956  143.6102  170.1396 C.2     1  UNL1        0.2792
     22 O         140.1077  145.0743  170.4654 O.2     1  UNL1       -0.2625
     23 N         139.5257  142.5205  170.9988 N.am    1  UNL1       -0.2460
     24 C         139.7291  141.2155  170.2877 C.2     1  UNL1        0.2392
     25 O         139.3105  139.8646  170.7875 O.2     1  UNL1       -0.2737
     26 H         139.0940  142.6407  171.8754 H       1  UNL1        0.1583
@<TRIPOS>BOND
     1    10    11    1
     2    11     9    1
     3     9     8    1
     4     8     7    1
     5     7     1    1
     6     1     2   ar
     7     2     3   ar
     8     3     4   ar
     9     4    18    1
    10    18    19    1
    11    19    20    1
    12    20    21    1
    13    21    22    2
    14    21    23   am
    15    23    24   am
    16    24    25    2
    17     4     5   ar
    18     5     6   ar
    19    11    12    1
    20    12    13   ar
    21    13    14   ar
    22    14    15   ar
    23    15    16   ar
    24    16    17   ar
    25     6     1   ar
    26    17    12   ar
    27    24    19    1
    28    23    26    1
@<TRIPOS>MOLECULE
*****
 26 28 0 0 0
SMALL
GASTEIGER

@<TRIPOS>ATOM
      1 C         138.2732  140.9424  164.7195 C.ar    1  UNL1        0.1386
      2 C         138.1263  139.7022  165.5503 C.ar    1  UNL1        0.0366
      3 C         139.0708  139.4446  166.6867 C.ar    1  UNL1       -0.0011
      4 C         140.1622  140.4271  166.9923 C.ar    1  UNL1       -0.0206
      5 C         140.3091  141.6673  166.1615 C.ar    1  UNL1       -0.0011
      6 C         139.3646  141.9249  165.0251 C.ar    1  UNL1        0.0366
      7 O         137.3287  141.2000  163.5830 O.3     1  UNL1       -0.4736
      8 C         137.7519  140.9053  162.1745 C.3     1  UNL1        0.2267
      9 C         137.8555  139.4847  161.7041 C.3     1  UNL1        0.1396
     10 C         139.5653  138.5042  160.0115 C.3     1  UNL1        0.1137
     11 N         139.2004  138.8865  161.4152 N.pl3   1  UNL1       -0.2879
     12 C         140.1803  138.6705  162.5302 C.ar    1  UNL1        0.1318
     13 C         140.1050  137.4261  163.3644 C.ar    1  UNL1        0.0343
     14 C         141.0849  137.2102  164.4793 C.ar    1  UNL1        0.0045
     15 C         142.1401  138.2386  164.7601 C.ar    1  UNL1        0.0208
     16 C         142.2154  139.4829  163.9259 C.ar    1  UNL1        0.1003
     17 N         141.2355  139.6989  162.8110 N.ar    1  UNL1       -0.2292
     18 C         141.1068  140.1695  168.1288 C.3     1  UNL1        0.0468
     19 C         141.3423  141.2297  169.1633 C.3     1  UNL1        0.1369
     20 S         142.6092  142.0099  169.3536 S.3     1  UNL1       -0.0482
     21 C         142.4022  142.9583  170.4971 C.2     1  UNL1        0.2792
     22 O         143.4127  143.9301  171.0306 O.2     1  UNL1       -0.2625
     23 N         141.0073  142.7644  171.0136 N.am    1  UNL1       -0.2460
     24 C         140.3523  141.6960  170.1892 C.2     1  UNL1        0.2392
     25 O         138.9529  141.1839  170.3607 O.2     1  UNL1       -0.2737
     26 H         140.5943  143.2525  171.7621 H       1  UNL1        0.1583
@<TRIPOS>BOND
     1    10    11    1
     2    11     9    1
     3     9     8    1
     4     8     7    1
     5     7     1    1
     6     1     2   ar
     7     2     3   ar
     8     3     4   ar
     9     4    18    1
    10    18    19    1
    11    19    20    1
    12    20    21    1
    13    21    22    2
    14    21    23   am
    15    23    24   am
    16    24    25    2
    17     4     5   ar
    18     5     6   ar
    19    11    12    1
    20    12    13   ar
    21    13    14   ar
    22    14    15   ar
    23    15    16   ar
    24    16    17   ar
    25     6     1   ar
    26    17    12   ar
    27    24    19    1
    28    23    26    1
@<TRIPOS>MOLECULE
*****
 26 28 0 0 0
SMALL
GASTEIGER

@<TRIPOS>ATOM
      1 C         143.3885  139.1599  164.1497 C.ar    1  UNL1        0.1386
      2 C         142.9303  138.3787  165.3454 C.ar    1  UNL1        0.0366
      3 C         142.6197  139.0876  166.6303 C.ar    1  UNL1       -0.0011
      4 C         142.7672  140.5776  166.7195 C.ar    1  UNL1       -0.0206
      5 C         143.2253  141.3588  165.5238 C.ar    1  UNL1       -0.0011
      6 C         143.5360  140.6500  164.2389 C.ar    1  UNL1        0.0366
      7 O         143.6992  138.4511  162.8648 O.3     1  UNL1       -0.4736
      8 C         142.9069  138.7575  161.6286 C.3     1  UNL1        0.2267
      9 C         141.7521  137.8818  161.2416 C.3     1  UNL1        0.1396
     10 C         139.3722  138.4549  160.3713 C.3     1  UNL1        0.1137
     11 N         140.3464  138.3341  161.5053 N.pl3   1  UNL1       -0.2879
     12 C         139.9151  138.6656  162.9032 C.ar    1  UNL1        0.1318
     13 C         139.4459  137.5764  163.8216 C.ar    1  UNL1        0.0343
     14 C         139.0146  137.9078  165.2194 C.ar    1  UNL1        0.0045
     15 C         139.0523  139.3286  165.6989 C.ar    1  UNL1        0.0208
     16 C         139.5214  140.4179  164.7806 C.ar    1  UNL1        0.1003
     17 N         139.9528  140.0864  163.3827 N.ar    1  UNL1       -0.2292
     18 C         142.4565  141.2865  168.0045 C.3     1  UNL1        0.0468
     19 C         141.4841  140.6861  168.9760 C.3     1  UNL1        0.1369
     20 S         139.9954  140.8688  168.9601 S.3     1  UNL1       -0.0482
     21 C         139.4209  140.0933  170.1083 C.2     1  UNL1        0.2792
     22 O         137.9678  139.9966  170.4679 O.2     1  UNL1       -0.2625
     23 N         140.5546  139.4313  170.8340 N.am    1  UNL1       -0.2460
     24 C         141.8297  139.7978  170.1342 C.2     1  UNL1        0.2392
     25 O         143.2084  139.3538  170.5241 O.2     1  UNL1       -0.2737
     26 H         140.4756  138.8572  171.6299 H       1  UNL1        0.1583
@<TRIPOS>BOND
     1    10    11    1
     2    11     9    1
     3     9     8    1
     4     8     7    1
     5     7     1    1
     6     1     2   ar
     7     2     3   ar
     8     3     4   ar
     9     4    18    1
    10    18    19    1
    11    19    20    1
    12    20    21    1
    13    21    22    2
    14    21    23   am
    15    23    24   am
    16    24    25    2
    17     4     5   ar
    18     5     6   ar
    19    11    12    1
    20    12    13   ar
    21    13    14   ar
    22    14    15   ar
    23    15    16   ar
    24    16    17   ar
    25     6     1   ar
    26    17    12   ar
    27    24    19    1
    28    23    26    1
@<TRIPOS>MOLECULE
*****
 26 28 0 0 0
SMALL
GASTEIGER

@<TRIPOS>ATOM
      1 C         138.3181  140.3560  163.9576 C.ar    1  UNL1        0.1386
      2 C         138.3753  139.4617  165.1604 C.ar    1  UNL1        0.0366
      3 C         139.0794  139.9201  166.4030 C.ar    1  UNL1       -0.0011
      4 C         139.7263  141.2728  166.4427 C.ar    1  UNL1       -0.0206
      5 C         139.6691  142.1672  165.2399 C.ar    1  UNL1       -0.0011
      6 C         138.9650  141.7088  163.9973 C.ar    1  UNL1        0.0366
      7 O         137.6140  139.8976  162.7149 O.3     1  UNL1       -0.4736
      8 C         138.2374  140.1301  161.3706 C.3     1  UNL1        0.2267
      9 C         138.8707  138.9895  160.6302 C.3     1  UNL1        0.1396
     10 C         141.2364  138.5771  159.6387 C.3     1  UNL1        0.1137
     11 N         140.3262  138.6842  160.8261 N.pl3   1  UNL1       -0.2879
     12 C         140.8714  138.4860  162.2094 C.ar    1  UNL1        0.1318
     13 C         141.6896  139.5649  162.8548 C.ar    1  UNL1        0.0343
     14 C         142.2347  139.3667  164.2381 C.ar    1  UNL1        0.0045
     15 C         141.9617  138.0896  164.9760 C.ar    1  UNL1        0.0208
     16 C         141.1435  137.0108  164.3306 C.ar    1  UNL1        0.1003
     17 N         140.5983  137.2090  162.9473 N.ar    1  UNL1       -0.2292
     18 C         140.4305  141.7312  167.6854 C.3     1  UNL1        0.0468
     19 C         140.8633  140.7299  168.7148 C.3     1  UNL1        0.1369
     20 S         142.1422  139.9461  168.6993 S.3     1  UNL1       -0.0482
     21 C         142.1626  139.0682  169.9154 C.2     1  UNL1        0.2792
     22 O         143.2571  138.1163  170.2974 O.2     1  UNL1       -0.2625
     23 N         140.8963  139.3095  170.6826 N.am    1  UNL1       -0.2460
     24 C         140.0934  140.3364  169.9406 C.2     1  UNL1        0.2392
     25 O         138.7554  140.8753  170.3520 O.2     1  UNL1       -0.2737
     26 H         140.6377  138.8708  171.5252 H       1  UNL1        0.1583
@<TRIPOS>BOND
     1    10    11    1
     2    11     9    1
     3     9     8    1
     4     8     7    1
     5     7     1    1
     6     1     2   ar
     7     2     3   ar
     8     3     4   ar
     9     4    18    1
    10    18    19    1
    11    19    20    1
    12    20    21    1
    13    21    22    2
    14    21    23   am
    15    23    24   am
    16    24    25    2
    17     4     5   ar
    18     5     6   ar
    19    11    12    1
    20    12    13   ar
    21    13    14   ar
    22    14    15   ar
    23    15    16   ar
    24    16    17   ar
    25     6     1   ar
    26    17    12   ar
    27    24    19    1
    28    23    26    1
@<TRIPOS>MOLECULE
*****
 26 28 0 0 0
SMALL
GASTEIGER

@<TRIPOS>ATOM
      1 C         142.3744  143.9938  164.1592 C.ar    1  UNL1        0.1386
      2 C         143.7322  143.8207  164.7728 C.ar    1  UNL1        0.0366
      3 C         143.9118  142.9112  165.9520 C.ar    1  UNL1       -0.0011
      4 C         142.7337  142.1747  166.5175 C.ar    1  UNL1       -0.0206
      5 C         141.3760  142.3478  165.9038 C.ar    1  UNL1       -0.0011
      6 C         141.1964  143.2574  164.7247 C.ar    1  UNL1        0.0366
      7 O         142.1947  144.9034  162.9800 O.3     1  UNL1       -0.4736
      8 C         142.2927  144.3545  161.5876 C.3     1  UNL1        0.2267
      9 C         143.2456  143.2354  161.2878 C.3     1  UNL1        0.1396
     10 C         141.8654  141.2768  160.2835 C.3     1  UNL1        0.1137
     11 N         142.7746  141.8126  161.3494 N.pl3   1  UNL1       -0.2879
     12 C         143.2129  140.9256  162.4768 C.ar    1  UNL1        0.1318
     13 C         144.6559  140.8889  162.8848 C.ar    1  UNL1        0.0343
     14 C         145.0942  140.0019  164.0122 C.ar    1  UNL1        0.0045
     15 C         144.0896  139.1515  164.7316 C.ar    1  UNL1        0.0208
     16 C         142.6466  139.1882  164.3235 C.ar    1  UNL1        0.1003
     17 N         142.2083  140.0752  163.1961 N.ar    1  UNL1       -0.2292
     18 C         142.9135  141.2652  167.6967 C.3     1  UNL1        0.0468
     19 C         142.5789  141.7504  169.0760 C.3     1  UNL1        0.1369
     20 S         141.2911  141.5105  169.8068 S.3     1  UNL1       -0.0482
     21 C         141.3897  142.1725  171.1491 C.2     1  UNL1        0.2792
     22 O         140.3262  142.1836  172.2070 O.2     1  UNL1       -0.2625
     23 N         142.7384  142.8215  171.2480 N.am    1  UNL1       -0.2460
     24 C         143.4734  142.5606  169.9667 C.2     1  UNL1        0.2392
     25 O         144.8595  143.0279  169.6345 O.2     1  UNL1       -0.2737
     26 H         143.0811  143.3296  172.0186 H       1  UNL1        0.1583
@<TRIPOS>BOND
     1    10    11    1
     2    11     9    1
     3     9     8    1
     4     8     7    1
     5     7     1    1
     6     1     2   ar
     7     2     3   ar
     8     3     4   ar
     9     4    18    1
    10    18    19    1
    11    19    20    1
    12    20    21    1
    13    21    22    2
    14    21    23   am
    15    23    24   am
    16    24    25    2
    17     4     5   ar
    18     5     6   ar
    19    11    12    1
    20    12    13   ar
    21    13    14   ar
    22    14    15   ar
    23    15    16   ar
    24    16    17   ar
    25     6     1   ar
    26    17    12   ar
    27    24    19    1
    28    23    26    1
@<TRIPOS>MOLECULE
*****
 26 28 0 0 0
SMALL
GASTEIGER

@<TRIPOS>ATOM
      1 C         138.4177  140.5259  165.1617 C.ar    1  UNL1        0.1386
      2 C         138.0680  139.3837  166.0690 C.ar    1  UNL1        0.0366
      3 C         138.7081  139.2772  167.4214 C.ar    1  UNL1       -0.0011
      4 C         139.6978  140.3127  167.8664 C.ar    1  UNL1       -0.0206
      5 C         140.0475  141.4548  166.9592 C.ar    1  UNL1       -0.0011
      6 C         139.4074  141.5614  165.6068 C.ar    1  UNL1        0.0366
      7 O         137.7777  140.6325  163.8093 O.3     1  UNL1       -0.4736
      8 C         138.6313  140.7873  162.5856 C.3     1  UNL1        0.2267
      9 C         138.6214  142.0788  161.8227 C.3     1  UNL1        0.1396
     10 C         137.8277  144.1986  163.0980 C.3     1  UNL1        0.1137
     11 N         138.9362  143.3667  162.5242 N.pl3   1  UNL1       -0.2879
     12 C         140.3595  143.8228  162.6519 C.ar    1  UNL1        0.1318
     13 C         140.7423  144.7931  163.7298 C.ar    1  UNL1        0.0343
     14 C         142.1656  145.2491  163.8575 C.ar    1  UNL1        0.0045
     15 C         143.2060  144.7349  162.9072 C.ar    1  UNL1        0.0208
     16 C         142.8232  143.7646  161.8293 C.ar    1  UNL1        0.1003
     17 N         141.3999  143.3085  161.7016 N.ar    1  UNL1       -0.2292
     18 C         140.3378  140.2061  169.2189 C.3     1  UNL1        0.0468
     19 C         141.3253  141.2432  169.6652 C.3     1  UNL1        0.1369
     20 S         142.7808  141.2874  169.3052 S.3     1  UNL1       -0.0482
     21 C         143.3858  142.4897  169.9673 C.2     1  UNL1        0.2792
     22 O         144.8205  142.9179  169.8762 O.2     1  UNL1       -0.2625
     23 N         142.3042  143.1886  170.7366 N.am    1  UNL1       -0.2460
     24 C         141.0308  142.4182  170.5498 C.2     1  UNL1        0.2392
     25 O         139.6970  142.7624  171.1435 O.2     1  UNL1       -0.2737
     26 H         142.4113  144.0089  171.2703 H       1  UNL1        0.1583
@<TRIPOS>BOND
     1    10    11    1
     2    11     9    1
     3     9     8    1
     4     8     7    1
     5     7     1    1
     6     1     2   ar
     7     2     3   ar
     8     3     4   ar
     9     4    18    1
    10    18    19    1
    11    19    20    1
    12    20    21    1
    13    21    22    2
    14    21    23   am
    15    23    24   am
    16    24    25    2
    17     4     5   ar
    18     5     6   ar
    19    11    12    1
    20    12    13   ar
    21    13    14   ar
    22    14    15   ar
    23    15    16   ar
    24    16    17   ar
    25     6     1   ar
    26    17    12   ar
    27    24    19    1
    28    23    26    1
@<TRIPOS>MOLECULE
*****
 26 28 0 0 0
SMALL
GASTEIGER

@<TRIPOS>ATOM
      1 C         139.8884  138.5117  165.0093 C.ar    1  UNL1        0.1386
      2 C         141.0822  139.2587  165.5259 C.ar    1  UNL1        0.0366
      3 C         141.0051  139.9796  166.8391 C.ar    1  UNL1       -0.0011
      4 C         139.7343  139.9534  167.6355 C.ar    1  UNL1       -0.0206
      5 C         138.5406  139.2064  167.1189 C.ar    1  UNL1       -0.0011
      6 C         138.6176  138.4856  165.8057 C.ar    1  UNL1        0.0366
      7 O         139.9655  137.7908  163.6961 O.3     1  UNL1       -0.4736
      8 C         138.7470  137.6806  162.8283 C.3     1  UNL1        0.2267
      9 C         138.7520  138.2718  161.4497 C.3     1  UNL1        0.1396
     10 C         137.9766  140.2424  159.9447 C.3     1  UNL1        0.1137
     11 N         138.4884  139.7363  161.2607 N.pl3   1  UNL1       -0.2879
     12 C         138.7365  140.6946  162.3876 C.ar    1  UNL1        0.1318
     13 C         137.6309  141.0301  163.3441 C.ar    1  UNL1        0.0343
     14 C         137.8790  141.9884  164.4710 C.ar    1  UNL1        0.0045
     15 C         139.2329  142.6113  164.6415 C.ar    1  UNL1        0.0208
     16 C         140.3385  142.2758  163.6850 C.ar    1  UNL1        0.1003
     17 N         140.0904  141.3175  162.5580 N.ar    1  UNL1       -0.2292
     18 C         139.6572  140.6743  168.9487 C.3     1  UNL1        0.0468
     19 C         140.9084  141.1900  169.5958 C.3     1  UNL1        0.1369
     20 S         141.2375  142.6302  169.8555 S.3     1  UNL1       -0.0482
     21 C         142.5826  142.6863  170.5169 C.2     1  UNL1        0.2792
     22 O         143.2996  143.9297  170.9527 O.2     1  UNL1       -0.2625
     23 N         143.0849  141.2807  170.6660 N.am    1  UNL1       -0.2460
     24 C         142.0501  140.3560  170.0967 C.2     1  UNL1        0.2392
     25 O         142.1411  138.8599  170.0386 O.2     1  UNL1       -0.2737
     26 H         143.9429  141.0123  171.0671 H       1  UNL1        0.1583
@<TRIPOS>BOND
     1    10    11    1
     2    11     9    1
     3     9     8    1
     4     8     7    1
     5     7     1    1
     6     1     2   ar
     7     2     3   ar
     8     3     4   ar
     9     4    18    1
    10    18    19    1
    11    19    20    1
    12    20    21    1
    13    21    22    2
    14    21    23   am
    15    23    24   am
    16    24    25    2
    17     4     5   ar
    18     5     6   ar
    19    11    12    1
    20    12    13   ar
    21    13    14   ar
    22    14    15   ar
    23    15    16   ar
    24    16    17   ar
    25     6     1   ar
    26    17    12   ar
    27    24    19    1
    28    23    26    1
@<TRIPOS>MOLECULE
*****
 26 28 0 0 0
SMALL
GASTEIGER

@<TRIPOS>ATOM
      1 C         140.1453  142.9621  164.2012 C.ar    1  UNL1        0.1386
      2 C         139.7878  143.2784  165.6232 C.ar    1  UNL1        0.0366
      3 C         140.5805  142.6793  166.7468 C.ar    1  UNL1       -0.0011
      4 C         141.7307  141.7638  166.4485 C.ar    1  UNL1       -0.0206
      5 C         142.0882  141.4475  165.0265 C.ar    1  UNL1       -0.0011
      6 C         141.2955  142.0466  163.9028 C.ar    1  UNL1        0.0366
      7 O         139.3526  143.5613  163.0775 O.3     1  UNL1       -0.4736
      8 C         137.8682  143.3550  163.0134 C.3     1  UNL1        0.2267
      9 C         137.2951  141.9775  163.1689 C.3     1  UNL1        0.1396
     10 C         137.9163  140.7514  160.9643 C.3     1  UNL1        0.1137
     11 N         137.9304  140.8166  162.4628 N.pl3   1  UNL1       -0.2879
     12 C         138.5799  139.7210  163.2551 C.ar    1  UNL1        0.1318
     13 C         138.4900  139.7237  164.7523 C.ar    1  UNL1        0.0343
     14 C         139.1395  138.6280  165.5446 C.ar    1  UNL1        0.0045
     15 C         139.8789  137.5297  164.8397 C.ar    1  UNL1        0.0208
     16 C         139.9688  137.5271  163.3424 C.ar    1  UNL1        0.1003
     17 N         139.3193  138.6227  162.5501 N.ar    1  UNL1       -0.2292
     18 C         142.5234  141.1646  167.5722 C.3     1  UNL1        0.0468
     19 C         142.3270  141.6581  168.9750 C.3     1  UNL1        0.1369
     20 S         141.1153  141.4288  169.8287 S.3     1  UNL1       -0.0482
     21 C         141.3472  142.0965  171.1517 C.2     1  UNL1        0.2792
     22 O         140.3918  142.1184  172.3079 O.2     1  UNL1       -0.2625
     23 N         142.7025  142.7385  171.1157 N.am    1  UNL1       -0.2460
     24 C         143.3080  142.4675  169.7703 C.2     1  UNL1        0.2392
     25 O         144.6576  142.9256  169.3025 O.2     1  UNL1       -0.2737
     26 H         143.1210  143.2482  171.8466 H       1  UNL1        0.1583
@<TRIPOS>BOND
     1    10    11    1
     2    11     9    1
     3     9     8    1
     4     8     7    1
     5     7     1    1
     6     1     2   ar
     7     2     3   ar
     8     3     4   ar
     9     4    18    1
    10    18    19    1
    11    19    20    1
    12    20    21    1
    13    21    22    2
    14    21    23   am
    15    23    24   am
    16    24    25    2
    17     4     5   ar
    18     5     6   ar
    19    11    12    1
    20    12    13   ar
    21    13    14   ar
    22    14    15   ar
    23    15    16   ar
    24    16    17   ar
    25     6     1   ar
    26    17    12   ar
    27    24    19    1
    28    23    26    1
