@<TRIPOS>MOLECULE
*****
 20 23 0 0 0
SMALL
GASTEIGER

@<TRIPOS>ATOM
      1 O         142.8125  140.0291  168.0112 O.2     1  UNL1       -0.2666
      2 C         141.6875  139.7514  167.0588 C.2     1  UNL1        0.2834
      3 C         141.9840  139.3258  165.6513 C.ar    1  UNL1        0.1985
      4 N         143.2751  139.0967  164.9229 N.ar    1  UNL1       -0.2226
      5 C         142.9480  138.6775  163.5203 C.ar    1  UNL1        0.0993
      6 C         143.8169  138.3192  162.3514 C.ar    1  UNL1        0.0207
      7 C         143.1926  137.9309  161.0440 C.ar    1  UNL1        0.0021
      8 C         141.6993  137.9009  160.9055 C.ar    1  UNL1        0.0082
      9 C         140.8303  138.2591  162.0745 C.ar    1  UNL1        0.0518
     10 BR        139.3370  138.2291  161.9360 Br      1  UNL1       -0.0474
     11 C         141.4547  138.6475  163.3819 C.ar    1  UNL1        0.0853
     12 N         140.8589  139.0481  164.6989 N.ar    1  UNL1       -0.3056
     13 C         139.4373  139.1960  165.1540 C.3     1  UNL1        0.1291
     14 C         139.1408  139.6216  166.5614 C.3     1  UNL1        0.1183
     15 N         140.2658  139.8993  167.5139 N.am    1  UNL1       -0.2716
     16 C         139.9693  140.3248  168.9213 C.3     1  UNL1        0.0938
     17 C         140.1216  141.7635  169.3178 C.3     1  UNL1        0.0199
     18 C         139.7563  142.5754  170.5250 C.3     1  UNL1        0.0017
     19 C         140.3369  143.7980  169.8784 C.3     1  UNL1        0.0001
     20 C         140.7021  142.9861  168.6712 C.3     1  UNL1        0.0017
@<TRIPOS>BOND
     1     1     2    2
     2     2     3    1
     3     3     4   ar
     4     4     5   ar
     5     5     6   ar
     6     6     7   ar
     7     7     8   ar
     8     8     9   ar
     9     9    10    1
    10     9    11   ar
    11    11    12   ar
    12    12    13    1
    13    13    14    1
    14    14    15    1
    15    15    16    1
    16    16    17    1
    17    17    18    1
    18    18    19    1
    19    19    20    1
    20    15     2   am
    21    20    17    1
    22    12     3   ar
    23    11     5   ar
@<TRIPOS>MOLECULE
*****
 20 23 0 0 0
SMALL
GASTEIGER

@<TRIPOS>ATOM
      1 O         140.3609  139.8745  168.5418 O.2     1  UNL1       -0.2666
      2 C         140.0682  140.7788  167.3815 C.2     1  UNL1        0.2834
      3 C         139.6281  140.1981  166.0703 C.ar    1  UNL1        0.1985
      4 N         139.3959  138.7843  165.6262 N.ar    1  UNL1       -0.2226
      5 C         138.9596  138.8149  164.1913 C.ar    1  UNL1        0.0993
      6 C         138.5917  137.7233  163.2306 C.ar    1  UNL1        0.0207
      7 C         138.1863  138.0644  161.8274 C.ar    1  UNL1        0.0021
      8 C         138.1489  139.4972  161.3847 C.ar    1  UNL1        0.0082
      9 C         138.5169  140.5888  162.3454 C.ar    1  UNL1        0.0518
     10 BR        138.4795  142.0215  161.9028 Br      1  UNL1       -0.0474
     11 C         138.9222  140.2477  163.7487 C.ar    1  UNL1        0.0853
     12 N         139.3353  141.1025  164.9100 N.ar    1  UNL1       -0.3056
     13 C         139.4828  142.5876  165.0608 C.3     1  UNL1        0.1291
     14 C         139.9229  143.1683  166.3719 C.3     1  UNL1        0.1183
     15 N         140.2157  142.2639  167.5323 N.am    1  UNL1       -0.2716
     16 C         140.6558  142.8446  168.8434 C.3     1  UNL1        0.0938
     17 C         142.0883  142.7274  169.2725 C.3     1  UNL1        0.0199
     18 C         143.3501  142.2299  168.6318 C.3     1  UNL1        0.0017
     19 C         144.1142  142.5615  169.8793 C.3     1  UNL1        0.0001
     20 C         142.8525  143.0590  170.5199 C.3     1  UNL1        0.0017
@<TRIPOS>BOND
     1     1     2    2
     2     2     3    1
     3     3     4   ar
     4     4     5   ar
     5     5     6   ar
     6     6     7   ar
     7     7     8   ar
     8     8     9   ar
     9     9    10    1
    10     9    11   ar
    11    11    12   ar
    12    12    13    1
    13    13    14    1
    14    14    15    1
    15    15    16    1
    16    16    17    1
    17    17    18    1
    18    18    19    1
    19    19    20    1
    20    15     2   am
    21    20    17    1
    22    12     3   ar
    23    11     5   ar
@<TRIPOS>MOLECULE
*****
 20 23 0 0 0
SMALL
GASTEIGER

@<TRIPOS>ATOM
      1 O         138.2360  143.1698  160.9847 O.2     1  UNL1       -0.2666
      2 C         139.0753  143.4139  162.2038 C.2     1  UNL1        0.2834
      3 C         138.9984  142.4715  163.3682 C.ar    1  UNL1        0.1985
      4 N         138.1939  141.2271  163.6010 N.ar    1  UNL1       -0.2226
      5 C         138.5359  140.7021  164.9639 C.ar    1  UNL1        0.0993
      6 C         138.0535  139.5052  165.7286 C.ar    1  UNL1        0.0207
      7 C         138.5871  139.2283  167.1028 C.ar    1  UNL1        0.0021
      8 C         139.6031  140.1483  167.7124 C.ar    1  UNL1        0.0082
      9 C         140.0855  141.3451  166.9477 C.ar    1  UNL1        0.0518
     10 BR        141.1014  142.2650  167.5572 Br      1  UNL1       -0.0474
     11 C         139.5519  141.6220  165.5734 C.ar    1  UNL1        0.0853
     12 N         139.8377  142.7155  164.5873 N.ar    1  UNL1       -0.3056
     13 C         140.7538  143.9020  164.6418 C.3     1  UNL1        0.1291
     14 C         140.8306  144.8444  163.4773 C.3     1  UNL1        0.1183
     15 N         139.9914  144.6003  162.2583 N.am    1  UNL1       -0.2716
     16 C         140.0682  145.5427  161.0938 C.3     1  UNL1        0.0938
     17 C         140.8692  145.1725  159.8809 C.3     1  UNL1        0.0199
     18 C         141.8860  144.1164  159.5631 C.3     1  UNL1        0.0017
     19 C         142.0020  144.6488  158.1655 C.3     1  UNL1        0.0001
     20 C         140.9853  145.7047  158.4833 C.3     1  UNL1        0.0017
@<TRIPOS>BOND
     1     1     2    2
     2     2     3    1
     3     3     4   ar
     4     4     5   ar
     5     5     6   ar
     6     6     7   ar
     7     7     8   ar
     8     8     9   ar
     9     9    10    1
    10     9    11   ar
    11    11    12   ar
    12    12    13    1
    13    13    14    1
    14    14    15    1
    15    15    16    1
    16    16    17    1
    17    17    18    1
    18    18    19    1
    19    19    20    1
    20    15     2   am
    21    20    17    1
    22    12     3   ar
    23    11     5   ar
@<TRIPOS>MOLECULE
*****
 20 23 0 0 0
SMALL
GASTEIGER

@<TRIPOS>ATOM
      1 O         138.7355  139.4645  168.0853 O.2     1  UNL1       -0.2666
      2 C         139.9067  139.6031  167.1584 C.2     1  UNL1        0.2834
      3 C         139.7601  139.2537  165.7071 C.ar    1  UNL1        0.1985
      4 N         138.5941  138.7511  164.9085 N.ar    1  UNL1       -0.2226
      5 C         139.0447  138.5790  163.4881 C.ar    1  UNL1        0.0993
      6 C         138.3262  138.1127  162.2567 C.ar    1  UNL1        0.0207
      7 C         139.0524  138.0426  160.9461 C.ar    1  UNL1        0.0021
      8 C         140.4969  138.4389  160.8669 C.ar    1  UNL1        0.0082
      9 C         141.2153  138.9052  162.0983 C.ar    1  UNL1        0.0518
     10 BR        142.6599  139.3014  162.0190 Br      1  UNL1       -0.0474
     11 C         140.4892  138.9752  163.4089 C.ar    1  UNL1        0.0853
     12 N         140.9314  139.3922  164.7803 N.ar    1  UNL1       -0.3056
     13 C         142.2492  139.8801  165.3048 C.3     1  UNL1        0.1291
     14 C         142.3958  140.2295  166.7562 C.3     1  UNL1        0.1183
     15 N         141.2245  140.0910  167.6830 N.am    1  UNL1       -0.2716
     16 C         141.3711  140.4404  169.1344 C.3     1  UNL1        0.0938
     17 C         140.9276  141.7846  169.6307 C.3     1  UNL1        0.0199
     18 C         141.5319  143.1573  169.6587 C.3     1  UNL1        0.0017
     19 C         140.3004  143.6856  170.3326 C.3     1  UNL1        0.0001
     20 C         139.6962  142.3131  170.3046 C.3     1  UNL1        0.0017
@<TRIPOS>BOND
     1     1     2    2
     2     2     3    1
     3     3     4   ar
     4     4     5   ar
     5     5     6   ar
     6     6     7   ar
     7     7     8   ar
     8     8     9   ar
     9     9    10    1
    10     9    11   ar
    11    11    12   ar
    12    12    13    1
    13    13    14    1
    14    14    15    1
    15    15    16    1
    16    16    17    1
    17    17    18    1
    18    18    19    1
    19    19    20    1
    20    15     2   am
    21    20    17    1
    22    12     3   ar
    23    11     5   ar
@<TRIPOS>MOLECULE
*****
 20 23 0 0 0
SMALL
GASTEIGER

@<TRIPOS>ATOM
      1 O         142.9177  139.3677  166.6504 O.2     1  UNL1       -0.2666
      2 C         142.1324  140.3851  165.8769 C.2     1  UNL1        0.2834
      3 C         141.0999  139.9393  164.8843 C.ar    1  UNL1        0.1985
      4 N         140.6399  138.5767  164.4579 N.ar    1  UNL1       -0.2226
      5 C         139.5703  138.7520  163.4210 C.ar    1  UNL1        0.0993
      6 C         138.7535  137.7622  162.6444 C.ar    1  UNL1        0.0207
      7 C         137.7356  138.2434  161.6532 C.ar    1  UNL1        0.0021
      8 C         137.5346  139.7143  161.4387 C.ar    1  UNL1        0.0082
      9 C         138.3514  140.7041  162.2153 C.ar    1  UNL1        0.0518
     10 BR        138.1504  142.1750  162.0007 Br      1  UNL1       -0.0474
     11 C         139.3693  140.2229  163.2064 C.ar    1  UNL1        0.0853
     12 N         140.3146  140.9567  164.1108 N.ar    1  UNL1       -0.3056
     13 C         140.5619  142.4198  164.3299 C.3     1  UNL1        0.1291
     14 C         141.5944  142.8656  165.3226 C.3     1  UNL1        0.1183
     15 N         142.3796  141.8482  166.0961 N.am    1  UNL1       -0.2716
     16 C         143.4121  142.2940  167.0887 C.3     1  UNL1        0.0938
     17 C         143.0483  142.4355  168.5370 C.3     1  UNL1        0.0199
     18 C         143.8062  142.3882  169.8305 C.3     1  UNL1        0.0017
     19 C         142.5337  142.6357  170.5851 C.3     1  UNL1        0.0001
     20 C         141.7758  142.6830  169.2916 C.3     1  UNL1        0.0017
@<TRIPOS>BOND
     1     1     2    2
     2     2     3    1
     3     3     4   ar
     4     4     5   ar
     5     5     6   ar
     6     6     7   ar
     7     7     8   ar
     8     8     9   ar
     9     9    10    1
    10     9    11   ar
    11    11    12   ar
    12    12    13    1
    13    13    14    1
    14    14    15    1
    15    15    16    1
    16    16    17    1
    17    17    18    1
    18    18    19    1
    19    19    20    1
    20    15     2   am
    21    20    17    1
    22    12     3   ar
    23    11     5   ar
@<TRIPOS>MOLECULE
*****
 20 23 0 0 0
SMALL
GASTEIGER

@<TRIPOS>ATOM
      1 O         143.7792  138.1859  166.4502 O.2     1  UNL1       -0.2666
      2 C         142.5010  138.9525  166.2811 C.2     1  UNL1        0.2834
      3 C         141.7468  138.8770  164.9867 C.ar    1  UNL1        0.1985
      4 N         142.0153  138.1362  163.7103 N.ar    1  UNL1       -0.2226
      5 C         140.9030  138.4450  162.7524 C.ar    1  UNL1        0.0993
      6 C         140.6372  137.9982  161.3454 C.ar    1  UNL1        0.0207
      7 C         139.4154  138.4830  160.6228 C.ar    1  UNL1        0.0021
      8 C         138.4595  139.4146  161.3072 C.ar    1  UNL1        0.0082
      9 C         138.7254  139.8614  162.7142 C.ar    1  UNL1        0.0518
     10 BR        137.7695  140.7930  163.3985 Br      1  UNL1       -0.0474
     11 C         139.9471  139.3766  163.4368 C.ar    1  UNL1        0.0853
     12 N         140.4686  139.6435  164.8176 N.ar    1  UNL1       -0.3056
     13 C         139.9447  140.4856  165.9430 C.3     1  UNL1        0.1291
     14 C         140.6989  140.5612  167.2373 C.3     1  UNL1        0.1183
     15 N         141.9771  139.7946  167.4064 N.am    1  UNL1       -0.2716
     16 C         142.7314  139.8701  168.7008 C.3     1  UNL1        0.0938
     17 C         142.7896  141.1621  169.4606 C.3     1  UNL1        0.0199
     18 C         143.5692  142.4367  169.3274 C.3     1  UNL1        0.0017
     19 C         142.8720  142.9893  170.5352 C.3     1  UNL1        0.0001
     20 C         142.0925  141.7147  170.6683 C.3     1  UNL1        0.0017
@<TRIPOS>BOND
     1     1     2    2
     2     2     3    1
     3     3     4   ar
     4     4     5   ar
     5     5     6   ar
     6     6     7   ar
     7     7     8   ar
     8     8     9   ar
     9     9    10    1
    10     9    11   ar
    11    11    12   ar
    12    12    13    1
    13    13    14    1
    14    14    15    1
    15    15    16    1
    16    16    17    1
    17    17    18    1
    18    18    19    1
    19    19    20    1
    20    15     2   am
    21    20    17    1
    22    12     3   ar
    23    11     5   ar
@<TRIPOS>MOLECULE
*****
 20 23 0 0 0
SMALL
GASTEIGER

@<TRIPOS>ATOM
      1 O         139.1551  143.7473  165.8489 O.2     1  UNL1       -0.2666
      2 C         140.5470  143.1893  165.8818 C.2     1  UNL1        0.2834
      3 C         141.3460  143.0917  164.6160 C.ar    1  UNL1        0.1985
      4 N         141.0291  143.4632  163.1978 N.ar    1  UNL1       -0.2226
      5 C         142.2251  143.1349  162.3541 C.ar    1  UNL1        0.0993
      6 C         142.4889  143.2849  160.8852 C.ar    1  UNL1        0.0207
      7 C         143.8089  142.8603  160.3131 C.ar    1  UNL1        0.0021
      8 C         144.8651  142.2858  161.2100 C.ar    1  UNL1        0.0082
      9 C         144.6013  142.1359  162.6789 C.ar    1  UNL1        0.0518
     10 BR        145.6575  141.5614  163.5758 Br      1  UNL1       -0.0474
     11 C         143.2813  142.5605  163.2510 C.ar    1  UNL1        0.0853
     12 N         142.7380  142.5337  164.6489 N.ar    1  UNL1       -0.3056
     13 C         143.3310  142.0734  165.9475 C.3     1  UNL1        0.1291
     14 C         142.5320  142.1711  167.2133 C.3     1  UNL1        0.1183
     15 N         141.1400  142.7290  167.1804 N.am    1  UNL1       -0.2716
     16 C         140.3410  142.8266  168.4461 C.3     1  UNL1        0.0938
     17 C         140.2437  141.6448  169.3647 C.3     1  UNL1        0.0199
     18 C         140.9397  141.2200  170.6238 C.3     1  UNL1        0.0017
     19 C         140.1062  139.9735  170.6638 C.3     1  UNL1        0.0001
     20 C         139.4103  140.3984  169.4049 C.3     1  UNL1        0.0017
@<TRIPOS>BOND
     1     1     2    2
     2     2     3    1
     3     3     4   ar
     4     4     5   ar
     5     5     6   ar
     6     6     7   ar
     7     7     8   ar
     8     8     9   ar
     9     9    10    1
    10     9    11   ar
    11    11    12   ar
    12    12    13    1
    13    13    14    1
    14    14    15    1
    15    15    16    1
    16    16    17    1
    17    17    18    1
    18    18    19    1
    19    19    20    1
    20    15     2   am
    21    20    17    1
    22    12     3   ar
    23    11     5   ar
@<TRIPOS>MOLECULE
*****
 20 23 0 0 0
SMALL
GASTEIGER

@<TRIPOS>ATOM
      1 O         143.2272  143.3977  163.9851 O.2     1  UNL1       -0.2666
      2 C         142.0539  142.6898  164.5950 C.2     1  UNL1        0.2834
      3 C         142.1176  142.2213  166.0185 C.ar    1  UNL1        0.1985
      4 N         143.1946  142.3143  167.0585 N.ar    1  UNL1       -0.2226
      5 C         142.6868  141.6639  168.3112 C.ar    1  UNL1        0.0993
      6 C         143.3111  141.4584  169.6594 C.ar    1  UNL1        0.0207
      7 C         142.5446  140.7579  170.7419 C.ar    1  UNL1        0.0021
      8 C         141.1539  140.2629  170.4761 C.ar    1  UNL1        0.0082
      9 C         140.5295  140.4684  169.1278 C.ar    1  UNL1        0.0518
     10 BR        139.1387  139.9733  168.8620 Br      1  UNL1       -0.0474
     11 C         141.2960  141.1689  168.0453 C.ar    1  UNL1        0.0853
     12 N         140.9443  141.5134  166.6284 N.ar    1  UNL1       -0.3056
     13 C         139.7071  141.2739  165.8148 C.3     1  UNL1        0.1291
     14 C         139.6433  141.7424  164.3912 C.3     1  UNL1        0.1183
     15 N         140.8167  142.4503  163.7813 N.am    1  UNL1       -0.2716
     16 C         140.7529  142.9188  162.3578 C.3     1  UNL1        0.0938
     17 C         140.3179  144.3205  162.0483 C.3     1  UNL1        0.0199
     18 C         140.6919  145.3440  161.0174 C.3     1  UNL1        0.0017
     19 C         139.7026  146.3029  161.6106 C.3     1  UNL1        0.0001
     20 C         139.3287  145.2795  162.6414 C.3     1  UNL1        0.0017
@<TRIPOS>BOND
     1     1     2    2
     2     2     3    1
     3     3     4   ar
     4     4     5   ar
     5     5     6   ar
     6     6     7   ar
     7     7     8   ar
     8     8     9   ar
     9     9    10    1
    10     9    11   ar
    11    11    12   ar
    12    12    13    1
    13    13    14    1
    14    14    15    1
    15    15    16    1
    16    16    17    1
    17    17    18    1
    18    18    19    1
    19    19    20    1
    20    15     2   am
    21    20    17    1
    22    12     3   ar
    23    11     5   ar
@<TRIPOS>MOLECULE
*****
 20 23 0 0 0
SMALL
GASTEIGER

@<TRIPOS>ATOM
      1 O         139.1773  138.7304  158.1567 O.2     1  UNL1       -0.2666
      2 C         138.8804  139.8158  159.1486 C.2     1  UNL1        0.2834
      3 C         138.8152  139.4966  160.6128 C.ar    1  UNL1        0.1985
      4 N         138.9985  138.2146  161.3697 N.ar    1  UNL1       -0.2226
      5 C         138.8148  138.5077  162.8293 C.ar    1  UNL1        0.0993
      6 C         138.8794  137.6313  164.0449 C.ar    1  UNL1        0.0207
      7 C         138.6473  138.2181  165.4056 C.ar    1  UNL1        0.0021
      8 C         138.3506  139.6813  165.5508 C.ar    1  UNL1        0.0082
      9 C         138.2859  140.5577  164.3352 C.ar    1  UNL1        0.0518
     10 BR        137.9892  142.0208  164.4804 Br      1  UNL1       -0.0474
     11 C         138.5180  139.9709  162.9744 C.ar    1  UNL1        0.0853
     12 N         138.5183  140.5820  161.6046 N.ar    1  UNL1       -0.3056
     13 C         138.2866  141.9867  161.1322 C.3     1  UNL1        0.1291
     14 C         138.3517  142.3059  159.6680 C.3     1  UNL1        0.1183
     15 N         138.6486  141.2205  158.6761 N.am    1  UNL1       -0.2716
     16 C         138.7138  141.5397  157.2119 C.3     1  UNL1        0.0938
     17 C         137.4487  141.7286  156.4285 C.3     1  UNL1        0.0199
     18 C         136.2742  140.8609  156.0850 C.3     1  UNL1        0.0017
     19 C         135.6595  141.9956  155.3205 C.3     1  UNL1        0.0001
     20 C         136.8339  142.8632  155.6640 C.3     1  UNL1        0.0017
@<TRIPOS>BOND
     1     1     2    2
     2     2     3    1
     3     3     4   ar
     4     4     5   ar
     5     5     6   ar
     6     6     7   ar
     7     7     8   ar
     8     8     9   ar
     9     9    10    1
    10     9    11   ar
    11    11    12   ar
    12    12    13    1
    13    13    14    1
    14    14    15    1
    15    15    16    1
    16    16    17    1
    17    17    18    1
    18    18    19    1
    19    19    20    1
    20    15     2   am
    21    20    17    1
    22    12     3   ar
    23    11     5   ar
