@<TRIPOS>MOLECULE
*****
 31 35 0 0 0
SMALL
GASTEIGER

@<TRIPOS>ATOM
      1 C         141.8838  143.9980  161.4131 C.ar    1  UNL1        0.1353
      2 C         141.6187  143.1019  162.5865 C.ar    1  UNL1        0.0346
      3 C         140.5670  143.4717  163.5901 C.ar    1  UNL1        0.0058
      4 C         139.7806  144.7377  163.4204 C.ar    1  UNL1        0.0208
      5 C         140.0457  145.6338  162.2471 C.ar    1  UNL1        0.1003
      6 N         141.0974  145.2640  161.2435 N.ar    1  UNL1       -0.2290
      7 C         146.6012  142.1179  156.6887 C.3     1  UNL1        0.0034
      8 C         145.2236  141.6214  157.0135 C.3     1  UNL1        0.0367
      9 C         145.3331  140.6016  155.9189 C.3     1  UNL1        0.0034
     10 C         143.8459  141.1248  157.3382 C.3     1  UNL1        0.0965
     11 N         143.7364  142.1445  158.4327 N.am    1  UNL1       -0.2638
     12 C         142.6847  142.5145  159.4364 C.2     1  UNL1        0.3087
     13 O         141.3824  141.7709  159.4668 O.2     1  UNL1       -0.2522
     14 N         142.9355  143.6281  160.4096 N.am    1  UNL1       -0.2535
     15 C         145.1140  142.6412  158.1080 C.3     1  UNL1        0.0965
     16 H         143.7903  144.1162  160.3896 H       1  UNL1        0.1578
     17 C         140.3019  142.5756  164.7635 C.ar    1  UNL1        0.0188
     18 C         140.6011  142.8910  166.1991 C.ar    1  UNL1        0.0758
     19 N         140.1751  141.7170  167.0300 N.ar    1  UNL1       -0.3265
     20 C         139.6126  140.6762  166.1079 C.ar    1  UNL1        0.0793
     21 C         139.0391  139.3138  166.3629 C.ar    1  UNL1        0.1160
     22 N         138.5441  138.4821  165.2170 N.ar    1  UNL1       -0.2408
     23 C         138.6224  139.0127  163.8162 C.ar    1  UNL1        0.0990
     24 C         139.1959  140.3751  163.5612 C.ar    1  UNL1        0.0222
     25 C         139.6909  141.2068  164.7071 C.ar    1  UNL1        0.0203
     26 C         140.2912  141.6038  168.5212 C.3     1  UNL1        0.0906
     27 C         140.4737  140.2585  169.1593 C.3     1  UNL1        0.0547
     28 C         140.5898  140.1453  170.6505 C.3     1  UNL1        0.1441
     29 O         140.5234  141.3773  171.5036 O.3     1  UNL1       -0.3536
     30 C         140.3409  142.7224  170.8656 C.3     1  UNL1        0.1441
     31 C         140.2248  142.8357  169.3744 C.3     1  UNL1        0.0547
@<TRIPOS>BOND
     1     7     8    1
     2     8     9    1
     3     8    10    1
     4    10    11    1
     5    11    12   am
     6    12    13    2
     7    12    14   am
     8    14     1    1
     9     1     2   ar
    10     2     3   ar
    11     3    17    1
    12    17    18   ar
    13    18    19   ar
    14    19    26    1
    15    26    27    1
    16    27    28    1
    17    28    29    1
    18    29    30    1
    19    30    31    1
    20    19    20   ar
    21    20    21   ar
    22    21    22   ar
    23    22    23   ar
    24    23    24   ar
    25    24    25   ar
    26     3     4   ar
    27     4     5   ar
    28     5     6   ar
    29    11    15    1
    30    15     8    1
    31     6     1   ar
    32    25    17   ar
    33    31    26    1
    34    25    20   ar
    35    14    16    1
@<TRIPOS>MOLECULE
*****
 31 35 0 0 0
SMALL
GASTEIGER

@<TRIPOS>ATOM
      1 C         142.5832  143.7840  161.4756 C.ar    1  UNL1        0.1353
      2 C         141.8024  143.2873  162.6562 C.ar    1  UNL1        0.0346
      3 C         142.4971  142.5337  163.7515 C.ar    1  UNL1        0.0058
      4 C         143.9724  142.2769  163.6662 C.ar    1  UNL1        0.0208
      5 C         144.7531  142.7735  162.4856 C.ar    1  UNL1        0.1003
      6 N         144.0586  143.5271  161.3903 N.ar    1  UNL1       -0.2290
      7 C         139.3365  147.0618  156.2965 C.3     1  UNL1        0.0034
      8 C         139.6660  145.6203  156.5484 C.3     1  UNL1        0.0367
      9 C         139.0131  145.2445  155.2513 C.3     1  UNL1        0.0034
     10 C         139.9955  144.1788  156.8003 C.3     1  UNL1        0.0965
     11 N         140.6484  144.5548  158.0973 N.am    1  UNL1       -0.2638
     12 C         141.3432  143.8013  159.1927 C.2     1  UNL1        0.3087
     13 O         141.4925  142.3116  159.1003 O.2     1  UNL1       -0.2522
     14 N         141.8885  144.5375  160.3804 N.am    1  UNL1       -0.2535
     15 C         140.3189  145.9963  157.8454 C.3     1  UNL1        0.0965
     16 H         141.7905  145.5152  160.4410 H       1  UNL1        0.1578
     17 C         141.7163  142.0371  164.9321 C.ar    1  UNL1        0.0188
     18 C         141.9068  142.4633  166.3576 C.ar    1  UNL1        0.0758
     19 N         140.9162  141.7166  167.2009 N.ar    1  UNL1       -0.3265
     20 C         140.1134  140.8290  166.2966 C.ar    1  UNL1        0.0793
     21 C         138.9961  139.8660  166.5688 C.ar    1  UNL1        0.1160
     22 N         138.3733  139.1011  165.4388 N.ar    1  UNL1       -0.2408
     23 C         138.8678  139.2992  164.0366 C.ar    1  UNL1        0.0990
     24 C         139.9851  140.2621  163.7644 C.ar    1  UNL1        0.0222
     25 C         140.6079  141.0271  164.8944 C.ar    1  UNL1        0.0203
     26 C         140.7563  141.8365  168.6875 C.3     1  UNL1        0.0906
     27 C         141.1064  140.6791  169.5753 C.3     1  UNL1        0.0547
     28 C         140.9465  140.7990  171.0619 C.3     1  UNL1        0.1441
     29 O         140.4366  142.0762  171.6608 O.3     1  UNL1       -0.3536
     30 C         140.0865  143.2335  170.7731 C.3     1  UNL1        0.1441
     31 C         140.2464  143.1136  169.2865 C.3     1  UNL1        0.0547
@<TRIPOS>BOND
     1     7     8    1
     2     8     9    1
     3     8    10    1
     4    10    11    1
     5    11    12   am
     6    12    13    2
     7    12    14   am
     8    14     1    1
     9     1     2   ar
    10     2     3   ar
    11     3    17    1
    12    17    18   ar
    13    18    19   ar
    14    19    26    1
    15    26    27    1
    16    27    28    1
    17    28    29    1
    18    29    30    1
    19    30    31    1
    20    19    20   ar
    21    20    21   ar
    22    21    22   ar
    23    22    23   ar
    24    23    24   ar
    25    24    25   ar
    26     3     4   ar
    27     4     5   ar
    28     5     6   ar
    29    11    15    1
    30    15     8    1
    31     6     1   ar
    32    25    17   ar
    33    31    26    1
    34    25    20   ar
    35    14    16    1
@<TRIPOS>MOLECULE
*****
 31 35 0 0 0
SMALL
GASTEIGER

@<TRIPOS>ATOM
      1 C         140.6113  139.5732  161.1095 C.ar    1  UNL1        0.1353
      2 C         140.2956  139.9620  162.5234 C.ar    1  UNL1        0.0346
      3 C         141.2528  139.6204  163.6267 C.ar    1  UNL1        0.0058
      4 C         142.5256  138.8902  163.3160 C.ar    1  UNL1        0.0208
      5 C         142.8413  138.5014  161.9020 C.ar    1  UNL1        0.1003
      6 N         141.8841  138.8429  160.7988 N.ar    1  UNL1       -0.2290
      7 C         136.2716  141.3751  156.0076 C.3     1  UNL1        0.0034
      8 C         137.3216  142.1262  156.7713 C.3     1  UNL1        0.0367
      9 C         137.0179  143.3604  155.9748 C.3     1  UNL1        0.0034
     10 C         138.3717  142.8773  157.5350 C.3     1  UNL1        0.0965
     11 N         138.6753  141.6431  158.3314 N.am    1  UNL1       -0.2638
     12 C         139.6325  141.3014  159.4347 C.2     1  UNL1        0.3087
     13 O         140.5682  142.3464  159.9662 O.2     1  UNL1       -0.2522
     14 N         139.6541  139.9148  160.0063 N.am    1  UNL1       -0.2535
     15 C         137.6252  140.8919  157.5677 C.3     1  UNL1        0.0965
     16 H         139.0400  139.2289  159.6575 H       1  UNL1        0.1578
     17 C         140.9371  140.0092  165.0407 C.ar    1  UNL1        0.0188
     18 C         141.6803  141.0188  165.8643 C.ar    1  UNL1        0.0758
     19 N         141.0253  141.0901  167.2119 N.ar    1  UNL1       -0.3265
     20 C         139.8773  140.1246  167.2210 C.ar    1  UNL1        0.0793
     21 C         138.8746  139.7675  168.2779 C.ar    1  UNL1        0.1160
     22 N         137.8175  138.7423  167.9929 N.ar    1  UNL1       -0.2408
     23 C         137.7630  138.0742  166.6509 C.ar    1  UNL1        0.0990
     24 C         138.7657  138.4313  165.5941 C.ar    1  UNL1        0.0222
     25 C         139.8229  139.4565  165.8791 C.ar    1  UNL1        0.0203
     26 C         141.4446  141.9721  168.3504 C.3     1  UNL1        0.0906
     27 C         140.5056  143.0183  168.8740 C.3     1  UNL1        0.0547
     28 C         140.9249  143.9002  170.0125 C.3     1  UNL1        0.1441
     29 O         142.2831  143.7361  170.6276 O.3     1  UNL1       -0.3536
     30 C         143.2220  142.6900  170.1041 C.3     1  UNL1        0.1441
     31 C         142.8027  141.8080  168.9655 C.3     1  UNL1        0.0547
@<TRIPOS>BOND
     1     7     8    1
     2     8     9    1
     3     8    10    1
     4    10    11    1
     5    11    12   am
     6    12    13    2
     7    12    14   am
     8    14     1    1
     9     1     2   ar
    10     2     3   ar
    11     3    17    1
    12    17    18   ar
    13    18    19   ar
    14    19    26    1
    15    26    27    1
    16    27    28    1
    17    28    29    1
    18    29    30    1
    19    30    31    1
    20    19    20   ar
    21    20    21   ar
    22    21    22   ar
    23    22    23   ar
    24    23    24   ar
    25    24    25   ar
    26     3     4   ar
    27     4     5   ar
    28     5     6   ar
    29    11    15    1
    30    15     8    1
    31     6     1   ar
    32    25    17   ar
    33    31    26    1
    34    25    20   ar
    35    14    16    1
@<TRIPOS>MOLECULE
*****
 31 35 0 0 0
SMALL
GASTEIGER

@<TRIPOS>ATOM
      1 C         143.5589  142.0271  161.6723 C.ar    1  UNL1        0.1353
      2 C         142.6168  141.7936  162.8159 C.ar    1  UNL1        0.0346
      3 C         143.1480  141.3504  164.1469 C.ar    1  UNL1        0.0058
      4 C         144.6214  141.1407  164.3341 C.ar    1  UNL1        0.0208
      5 C         145.5636  141.3742  163.1905 C.ar    1  UNL1        0.1003
      6 N         145.0323  141.8174  161.8596 N.ar    1  UNL1       -0.2290
      7 C         141.0459  144.2872  155.6155 C.3     1  UNL1        0.0034
      8 C         141.1654  144.9152  156.9724 C.3     1  UNL1        0.0367
      9 C         140.5335  146.1701  156.4472 C.3     1  UNL1        0.0034
     10 C         141.2849  145.5433  158.3293 C.3     1  UNL1        0.0965
     11 N         141.9168  144.2884  158.8545 N.am    1  UNL1       -0.2638
     12 C         142.4482  143.8451  160.1854 C.2     1  UNL1        0.3087
     13 O         142.4001  144.7765  161.3602 O.2     1  UNL1       -0.2522
     14 N         143.0276  142.4703  160.3415 N.am    1  UNL1       -0.2535
     15 C         141.7973  143.6603  157.4975 C.3     1  UNL1        0.0965
     16 H         143.0592  141.8590  159.5704 H       1  UNL1        0.1578
     17 C         142.2059  141.1169  165.2905 C.ar    1  UNL1        0.0188
     18 C         142.3251  141.7050  166.6652 C.ar    1  UNL1        0.0758
     19 N         141.1719  141.2059  167.4844 N.ar    1  UNL1       -0.3265
     20 C         140.3401  140.3092  166.6161 C.ar    1  UNL1        0.0793
     21 C         139.0833  139.5358  166.8848 C.ar    1  UNL1        0.1160
     22 N         138.4656  138.7073  165.7976 N.ar    1  UNL1       -0.2408
     23 C         139.1046  138.6523  164.4417 C.ar    1  UNL1        0.0990
     24 C         140.3614  139.4258  164.1729 C.ar    1  UNL1        0.0222
     25 C         140.9791  140.2543  165.2601 C.ar    1  UNL1        0.0203
     26 C         140.8986  141.5440  168.9201 C.3     1  UNL1        0.0906
     27 C         140.3116  142.8772  169.2780 C.3     1  UNL1        0.0547
     28 C         140.0383  143.2153  170.7136 C.3     1  UNL1        0.1441
     29 O         140.3519  142.2202  171.7913 O.3     1  UNL1       -0.3536
     30 C         140.9388  140.8870  171.4334 C.3     1  UNL1        0.1441
     31 C         141.2122  140.5490  169.9978 C.3     1  UNL1        0.0547
@<TRIPOS>BOND
     1     7     8    1
     2     8     9    1
     3     8    10    1
     4    10    11    1
     5    11    12   am
     6    12    13    2
     7    12    14   am
     8    14     1    1
     9     1     2   ar
    10     2     3   ar
    11     3    17    1
    12    17    18   ar
    13    18    19   ar
    14    19    26    1
    15    26    27    1
    16    27    28    1
    17    28    29    1
    18    29    30    1
    19    30    31    1
    20    19    20   ar
    21    20    21   ar
    22    21    22   ar
    23    22    23   ar
    24    23    24   ar
    25    24    25   ar
    26     3     4   ar
    27     4     5   ar
    28     5     6   ar
    29    11    15    1
    30    15     8    1
    31     6     1   ar
    32    25    17   ar
    33    31    26    1
    34    25    20   ar
    35    14    16    1
@<TRIPOS>MOLECULE
*****
 31 35 0 0 0
SMALL
GASTEIGER

@<TRIPOS>ATOM
      1 C         142.9848  138.6610  159.1672 C.ar    1  UNL1        0.1353
      2 C         141.9948  138.9409  160.2588 C.ar    1  UNL1        0.0346
      3 C         142.0083  140.2660  160.9617 C.ar    1  UNL1        0.0058
      4 C         143.0116  141.3110  160.5731 C.ar    1  UNL1        0.0208
      5 C         144.0016  141.0310  159.4815 C.ar    1  UNL1        0.1003
      6 N         143.9882  139.7060  158.7785 N.ar    1  UNL1       -0.2290
      7 C         142.7801  132.6285  155.7501 C.3     1  UNL1        0.0034
      8 C         142.1576  133.9696  155.4975 C.3     1  UNL1        0.0367
      9 C         141.5159  133.4368  154.2508 C.3     1  UNL1        0.0034
     10 C         141.5350  135.3107  155.2449 C.3     1  UNL1        0.0965
     11 N         142.1767  135.8434  156.4916 N.am    1  UNL1       -0.2638
     12 C         142.1903  137.1685  157.1946 C.2     1  UNL1        0.3087
     13 O         141.4229  138.3260  156.6279 O.2     1  UNL1       -0.2522
     14 N         142.9713  137.3359  158.4643 N.am    1  UNL1       -0.2535
     15 C         142.7993  134.5023  156.7443 C.3     1  UNL1        0.0965
     16 H         143.4749  136.5762  158.8362 H       1  UNL1        0.1578
     17 C         141.0183  140.5460  162.0533 C.ar    1  UNL1        0.0188
     18 C         140.9234  139.8231  163.3642 C.ar    1  UNL1        0.0758
     19 N         139.7959  140.4284  164.1467 N.ar    1  UNL1       -0.3265
     20 C         139.1939  141.5253  163.3195 C.ar    1  UNL1        0.0793
     21 C         138.0555  142.4674  163.5771 C.ar    1  UNL1        0.1160
     22 N         137.6725  143.4821  162.5410 N.ar    1  UNL1       -0.2408
     23 C         138.4281  143.5548  161.2472 C.ar    1  UNL1        0.0990
     24 C         139.5665  142.6128  160.9895 C.ar    1  UNL1        0.0222
     25 C         139.9494  141.5980  162.0257 C.ar    1  UNL1        0.0203
     26 C         139.3487  140.0101  165.5161 C.3     1  UNL1        0.0906
     27 C         138.1883  139.0725  165.6724 C.3     1  UNL1        0.0547
     28 C         137.7411  138.6543  167.0417 C.3     1  UNL1        0.1441
     29 O         138.4544  139.1736  168.2548 O.3     1  UNL1       -0.3536
     30 C         139.6148  140.1112  168.0985 C.3     1  UNL1        0.1441
     31 C         140.0619  140.5294  166.7291 C.3     1  UNL1        0.0547
@<TRIPOS>BOND
     1     7     8    1
     2     8     9    1
     3     8    10    1
     4    10    11    1
     5    11    12   am
     6    12    13    2
     7    12    14   am
     8    14     1    1
     9     1     2   ar
    10     2     3   ar
    11     3    17    1
    12    17    18   ar
    13    18    19   ar
    14    19    26    1
    15    26    27    1
    16    27    28    1
    17    28    29    1
    18    29    30    1
    19    30    31    1
    20    19    20   ar
    21    20    21   ar
    22    21    22   ar
    23    22    23   ar
    24    23    24   ar
    25    24    25   ar
    26     3     4   ar
    27     4     5   ar
    28     5     6   ar
    29    11    15    1
    30    15     8    1
    31     6     1   ar
    32    25    17   ar
    33    31    26    1
    34    25    20   ar
    35    14    16    1
@<TRIPOS>MOLECULE
*****
 31 35 0 0 0
SMALL
GASTEIGER

@<TRIPOS>ATOM
      1 C         143.0052  140.4112  170.6441 C.ar    1  UNL1        0.1353
      2 C         142.8832  140.2685  169.1559 C.ar    1  UNL1        0.0346
      3 C         141.9926  141.1965  168.3840 C.ar    1  UNL1        0.0058
      4 C         141.2242  142.2671  169.1004 C.ar    1  UNL1        0.0208
      5 C         141.3462  142.4098  170.5886 C.ar    1  UNL1        0.1003
      6 N         142.2368  141.4819  171.3605 N.ar    1  UNL1       -0.2290
      7 C         147.0402  135.9383  174.0824 C.3     1  UNL1        0.0034
      8 C         146.0521  135.7758  172.9656 C.3     1  UNL1        0.0367
      9 C         146.3234  134.3008  172.9403 C.3     1  UNL1        0.0034
     10 C         145.0640  135.6132  171.8488 C.3     1  UNL1        0.0965
     11 N         144.7927  137.0882  171.8742 N.am    1  UNL1       -0.2638
     12 C         143.9021  138.0164  171.1024 C.2     1  UNL1        0.3087
     13 O         143.0179  137.4776  170.0171 O.2     1  UNL1       -0.2522
     14 N         143.8958  139.4832  171.4159 N.am    1  UNL1       -0.2535
     15 C         145.7808  137.2508  172.9910 C.3     1  UNL1        0.0965
     16 H         144.4761  139.8369  172.1282 H       1  UNL1        0.1578
     17 C         141.8705  141.0538  166.8958 C.ar    1  UNL1        0.0188
     18 C         140.9201  140.1467  166.1721 C.ar    1  UNL1        0.0758
     19 N         141.1396  140.3254  164.6991 N.ar    1  UNL1       -0.3265
     20 C         142.2257  141.3431  164.5124 C.ar    1  UNL1        0.0793
     21 C         142.8618  141.9179  163.2816 C.ar    1  UNL1        0.1160
     22 N         143.9495  142.9429  163.4084 N.ar    1  UNL1       -0.2408
     23 C         144.4012  143.3931  164.7661 C.ar    1  UNL1        0.0990
     24 C         143.7652  142.8182  165.9970 C.ar    1  UNL1        0.0222
     25 C         142.6775  141.7932  165.8701 C.ar    1  UNL1        0.0203
     26 C         140.4025  139.6119  163.6048 C.3     1  UNL1        0.0906
     27 C         138.9122  139.7432  163.4949 C.3     1  UNL1        0.0547
     28 C         138.1751  139.0296  162.4006 C.3     1  UNL1        0.1441
     29 O         138.9281  138.1848  161.4162 O.3     1  UNL1       -0.3536
     30 C         140.4183  138.0535  161.5260 C.3     1  UNL1        0.1441
     31 C         141.1555  138.7671  162.6203 C.3     1  UNL1        0.0547
@<TRIPOS>BOND
     1     7     8    1
     2     8     9    1
     3     8    10    1
     4    10    11    1
     5    11    12   am
     6    12    13    2
     7    12    14   am
     8    14     1    1
     9     1     2   ar
    10     2     3   ar
    11     3    17    1
    12    17    18   ar
    13    18    19   ar
    14    19    26    1
    15    26    27    1
    16    27    28    1
    17    28    29    1
    18    29    30    1
    19    30    31    1
    20    19    20   ar
    21    20    21   ar
    22    21    22   ar
    23    22    23   ar
    24    23    24   ar
    25    24    25   ar
    26     3     4   ar
    27     4     5   ar
    28     5     6   ar
    29    11    15    1
    30    15     8    1
    31     6     1   ar
    32    25    17   ar
    33    31    26    1
    34    25    20   ar
    35    14    16    1
@<TRIPOS>MOLECULE
*****
 31 35 0 0 0
SMALL
GASTEIGER

@<TRIPOS>ATOM
      1 C         142.8178  143.5980  160.7592 C.ar    1  UNL1        0.1353
      2 C         142.7661  142.8483  162.0574 C.ar    1  UNL1        0.0346
      3 C         141.7074  143.1728  163.0693 C.ar    1  UNL1        0.0058
      4 C         140.7004  144.2470  162.7829 C.ar    1  UNL1        0.0208
      5 C         140.7520  144.9966  161.4847 C.ar    1  UNL1        0.1003
      6 N         141.8107  144.6722  160.4729 N.ar    1  UNL1       -0.2290
      7 C         147.5472  141.9898  155.9473 C.3     1  UNL1        0.0034
      8 C         146.0727  141.7379  156.0577 C.3     1  UNL1        0.0367
      9 C         146.0954  141.0269  154.7370 C.3     1  UNL1        0.0034
     10 C         144.5981  141.4859  156.1680 C.3     1  UNL1        0.0965
     11 N         144.5755  142.1969  157.4885 N.am    1  UNL1       -0.2638
     12 C         143.5167  142.5215  158.5004 C.2     1  UNL1        0.3087
     13 O         142.0983  142.0941  158.2652 O.2     1  UNL1       -0.2522
     14 N         143.8765  143.2735  159.7475 N.am    1  UNL1       -0.2535
     15 C         146.0500  142.4489  157.3782 C.3     1  UNL1        0.0965
     16 H         144.8075  143.5540  159.9019 H       1  UNL1        0.1578
     17 C         141.6557  142.4232  164.3675 C.ar    1  UNL1        0.0188
     18 C         140.8394  142.7965  165.5694 C.ar    1  UNL1        0.0758
     19 N         141.0906  141.7726  166.6364 N.ar    1  UNL1       -0.3265
     20 C         142.0620  140.7665  166.0941 C.ar    1  UNL1        0.0793
     21 C         142.6737  139.5362  166.6959 C.ar    1  UNL1        0.1160
     22 N         143.6346  138.7081  165.8955 N.ar    1  UNL1       -0.2408
     23 C         143.9839  139.1102  164.4933 C.ar    1  UNL1        0.0990
     24 C         143.3723  140.3405  163.8914 C.ar    1  UNL1        0.0222
     25 C         142.4113  141.1686  164.6918 C.ar    1  UNL1        0.0203
     26 C         140.4778  141.7574  168.0054 C.3     1  UNL1        0.0906
     27 C         140.6100  142.9545  168.8997 C.3     1  UNL1        0.0547
     28 C         139.9973  142.9393  170.2687 C.3     1  UNL1        0.1441
     29 O         139.2523  141.7271  170.7436 O.3     1  UNL1       -0.3536
     30 C         139.1201  140.5300  169.8494 C.3     1  UNL1        0.1441
     31 C         139.7328  140.5452  168.4803 C.3     1  UNL1        0.0547
@<TRIPOS>BOND
     1     7     8    1
     2     8     9    1
     3     8    10    1
     4    10    11    1
     5    11    12   am
     6    12    13    2
     7    12    14   am
     8    14     1    1
     9     1     2   ar
    10     2     3   ar
    11     3    17    1
    12    17    18   ar
    13    18    19   ar
    14    19    26    1
    15    26    27    1
    16    27    28    1
    17    28    29    1
    18    29    30    1
    19    30    31    1
    20    19    20   ar
    21    20    21   ar
    22    21    22   ar
    23    22    23   ar
    24    23    24   ar
    25    24    25   ar
    26     3     4   ar
    27     4     5   ar
    28     5     6   ar
    29    11    15    1
    30    15     8    1
    31     6     1   ar
    32    25    17   ar
    33    31    26    1
    34    25    20   ar
    35    14    16    1
@<TRIPOS>MOLECULE
*****
 31 35 0 0 0
SMALL
GASTEIGER

@<TRIPOS>ATOM
      1 C         143.8606  140.7223  161.7091 C.ar    1  UNL1        0.1353
      2 C         142.8767  140.5749  162.8317 C.ar    1  UNL1        0.0346
      3 C         143.2585  140.9871  164.2226 C.ar    1  UNL1        0.0058
      4 C         144.6241  141.5467  164.4907 C.ar    1  UNL1        0.0208
      5 C         145.6079  141.6941  163.3681 C.ar    1  UNL1        0.1003
      6 N         145.2262  141.2819  161.9773 N.ar    1  UNL1       -0.2290
      7 C         142.1034  138.5879  155.3478 C.3     1  UNL1        0.0034
      8 C         142.4060  137.8607  156.6243 C.3     1  UNL1        0.0367
      9 C         142.1685  136.5503  155.9340 C.3     1  UNL1        0.0034
     10 C         142.7085  137.1334  157.9009 C.3     1  UNL1        0.0965
     11 N         142.9459  138.4437  158.5911 N.am    1  UNL1       -0.2638
     12 C         143.3277  138.8561  159.9820 C.2     1  UNL1        0.3087
     13 O         143.5585  137.8144  161.0363 O.2     1  UNL1       -0.2522
     14 N         143.4788  140.3100  160.3183 N.am    1  UNL1       -0.2535
     15 C         142.6434  139.1711  157.3146 C.3     1  UNL1        0.0965
     16 H         143.3273  140.9937  159.6263 H       1  UNL1        0.1578
     17 C         142.2746  140.8397  165.3452 C.ar    1  UNL1        0.0188
     18 C         142.3978  141.4474  166.7110 C.ar    1  UNL1        0.0758
     19 N         141.1941  141.0420  167.5090 N.ar    1  UNL1       -0.3265
     20 C         140.3270  140.1837  166.6363 C.ar    1  UNL1        0.0793
     21 C         139.0157  139.4999  166.8867 C.ar    1  UNL1        0.1160
     22 N         138.3721  138.6911  165.7997 N.ar    1  UNL1       -0.2408
     23 C         139.0399  138.5661  164.4624 C.ar    1  UNL1        0.0990
     24 C         140.3512  139.2499  164.2120 C.ar    1  UNL1        0.0222
     25 C         140.9948  140.0587  165.2990 C.ar    1  UNL1        0.0203
     26 C         140.9078  141.4271  168.9302 C.3     1  UNL1        0.0906
     27 C         141.2120  140.4683  170.0430 C.3     1  UNL1        0.0547
     28 C         140.9256  140.8535  171.4641 C.3     1  UNL1        0.1441
     29 O         140.3352  142.1974  171.7725 O.3     1  UNL1       -0.3536
     30 C         140.0310  143.1562  170.6598 C.3     1  UNL1        0.1441
     31 C         140.3173  142.7710  169.2386 C.3     1  UNL1        0.0547
@<TRIPOS>BOND
     1     7     8    1
     2     8     9    1
     3     8    10    1
     4    10    11    1
     5    11    12   am
     6    12    13    2
     7    12    14   am
     8    14     1    1
     9     1     2   ar
    10     2     3   ar
    11     3    17    1
    12    17    18   ar
    13    18    19   ar
    14    19    26    1
    15    26    27    1
    16    27    28    1
    17    28    29    1
    18    29    30    1
    19    30    31    1
    20    19    20   ar
    21    20    21   ar
    22    21    22   ar
    23    22    23   ar
    24    23    24   ar
    25    24    25   ar
    26     3     4   ar
    27     4     5   ar
    28     5     6   ar
    29    11    15    1
    30    15     8    1
    31     6     1   ar
    32    25    17   ar
    33    31    26    1
    34    25    20   ar
    35    14    16    1
@<TRIPOS>MOLECULE
*****
 31 35 0 0 0
SMALL
GASTEIGER

@<TRIPOS>ATOM
      1 C         139.2658  143.7012  160.8370 C.ar    1  UNL1        0.1353
      2 C         139.6276  142.9323  162.0732 C.ar    1  UNL1        0.0346
      3 C         140.3161  143.6243  163.2122 C.ar    1  UNL1        0.0058
      4 C         140.6428  145.0850  163.1149 C.ar    1  UNL1        0.0208
      5 C         140.2811  145.8538  161.8787 C.ar    1  UNL1        0.1003
      6 N         139.5926  145.1619  160.7398 N.ar    1  UNL1       -0.2290
      7 C         136.2961  140.4456  155.4806 C.3     1  UNL1        0.0034
      8 C         137.7252  140.6790  155.8719 C.3     1  UNL1        0.0367
      9 C         138.1807  139.9337  154.6524 C.3     1  UNL1        0.0034
     10 C         139.1544  140.9124  156.2631 C.3     1  UNL1        0.0965
     11 N         138.6988  141.6576  157.4825 N.am    1  UNL1       -0.2638
     12 C         139.3873  142.3497  158.6215 C.2     1  UNL1        0.3087
     13 O         140.8856  142.3823  158.6838 O.2     1  UNL1       -0.2522
     14 N         138.5774  143.0092  159.6981 N.am    1  UNL1       -0.2535
     15 C         137.2697  141.4242  157.0913 C.3     1  UNL1        0.0965
     16 H         137.5939  142.9878  159.6573 H       1  UNL1        0.1578
     17 C         140.6779  142.8555  164.4483 C.ar    1  UNL1        0.0188
     18 C         140.0466  143.0116  165.8000 C.ar    1  UNL1        0.0758
     19 N         140.7130  142.0482  166.7368 N.ar    1  UNL1       -0.3265
     20 C         141.7562  141.2966  165.9642 C.ar    1  UNL1        0.0793
     21 C         142.7230  140.2224  166.3658 C.ar    1  UNL1        0.1160
     22 N         143.6681  139.6472  165.3529 N.ar    1  UNL1       -0.2408
     23 C         143.6464  140.1462  163.9385 C.ar    1  UNL1        0.0990
     24 C         142.6796  141.2204  163.5369 C.ar    1  UNL1        0.0222
     25 C         141.7345  141.7956  164.5497 C.ar    1  UNL1        0.0203
     26 C         140.3926  141.8679  168.1911 C.3     1  UNL1        0.0906
     27 C         139.9869  140.5194  168.7082 C.3     1  UNL1        0.0547
     28 C         139.6665  140.3391  170.1624 C.3     1  UNL1        0.1441
     29 O         139.7516  141.5072  171.0996 O.3     1  UNL1       -0.3536
     30 C         140.1572  142.8556  170.5825 C.3     1  UNL1        0.1441
     31 C         140.4777  143.0359  169.1283 C.3     1  UNL1        0.0547
@<TRIPOS>BOND
     1     7     8    1
     2     8     9    1
     3     8    10    1
     4    10    11    1
     5    11    12   am
     6    12    13    2
     7    12    14   am
     8    14     1    1
     9     1     2   ar
    10     2     3   ar
    11     3    17    1
    12    17    18   ar
    13    18    19   ar
    14    19    26    1
    15    26    27    1
    16    27    28    1
    17    28    29    1
    18    29    30    1
    19    30    31    1
    20    19    20   ar
    21    20    21   ar
    22    21    22   ar
    23    22    23   ar
    24    23    24   ar
    25    24    25   ar
    26     3     4   ar
    27     4     5   ar
    28     5     6   ar
    29    11    15    1
    30    15     8    1
    31     6     1   ar
    32    25    17   ar
    33    31    26    1
    34    25    20   ar
    35    14    16    1
