@<TRIPOS>MOLECULE
*****
 39 41 0 0 0
SMALL
GASTEIGER

@<TRIPOS>ATOM
      1 N         142.3595  140.5206  164.3483 N.am    1  UNL1       -0.2550
      2 C         141.7245  139.3935  165.1074 C.2     1  UNL1        0.2527
      3 O         141.4766  138.0785  164.4297 O.2     1  UNL1       -0.2696
      4 C         141.3373  139.5814  166.5443 C.ar    1  UNL1        0.0543
      5 C         142.3821  139.5090  167.6182 C.ar    1  UNL1        0.0108
      6 C         141.9949  139.6969  169.0552 C.ar    1  UNL1        0.0754
      7 C         140.5629  139.9573  169.4182 C.ar    1  UNL1        0.2901
      8 C         139.5182  140.0297  168.3443 C.ar    1  UNL1        0.0754
      9 C         139.9053  139.8417  166.9074 C.ar    1  UNL1        0.0108
     10 N         140.1757  140.1452  170.8552 N.pl3   1  UNL1        0.0809
     11 O         140.7614  141.2758  171.6481 O.2     1  UNL1        0.0415
     12 O         139.2029  139.2025  171.4993 O.co2   1  UNL1       -0.5760
     13 C         142.7466  140.3327  162.9113 C.ar    1  UNL1        0.0573
     14 C         143.7505  139.2832  162.5361 C.ar    1  UNL1        0.0182
     15 C         144.1377  139.0953  161.0992 C.ar    1  UNL1        0.0413
     16 C         143.5210  139.9569  160.0374 C.ar    1  UNL1        0.1725
     17 C         142.5171  141.0064  160.4125 C.ar    1  UNL1        0.1736
     18 C         142.1299  141.1943  161.8495 C.ar    1  UNL1        0.0549
     19 O         143.9082  139.7690  158.6005 O.3     1  UNL1       -0.4684
     20 C         143.0182  138.9877  157.6799 C.3     1  UNL1        0.2526
     21 O         141.9004  141.8680  159.3508 O.3     1  UNL1       -0.4683
     22 C         141.9888  143.3619  159.4522 C.3     1  UNL1        0.2526
     23 C         142.6073  141.8356  165.0260 C.3     1  UNL1        0.0999
     24 C         141.5267  142.8752  165.0640 C.3     1  UNL1        0.0392
     25 C         141.6604  144.1262  164.2473 C.3     1  UNL1        0.0739
     26 N         140.4335  144.8528  163.7820 N.3     1  UNL1       -0.2711
     27 C         140.4525  145.6004  162.4816 C.3     1  UNL1        0.0896
     28 C         139.1875  144.8319  164.6169 C.3     1  UNL1        0.0768
     29 C         137.9426  144.1816  164.0902 C.3     1  UNL1        0.0438
     30 C         138.1533  140.0831  162.2442 C.ar    1  UNL1        0.1724
     31 C         138.1184  140.2327  163.7363 C.ar    1  UNL1        0.0397
     32 C         138.0482  141.5989  164.3516 C.ar    1  UNL1       -0.0009
     33 C         138.0128  142.8155  163.4749 C.ar    1  UNL1       -0.0176
     34 C         138.0477  142.6658  161.9828 C.ar    1  UNL1        0.0358
     35 C         138.1179  141.2997  161.3674 C.ar    1  UNL1        0.1721
     36 C         139.5526  138.1291  161.2575 C.3     1  UNL1        0.2526
     37 O         138.2235  138.7169  161.6288 O.3     1  UNL1       -0.4684
     38 O         138.1528  141.1501  159.8753 O.3     1  UNL1       -0.4684
     39 C         138.4122  142.3457  159.0075 C.3     1  UNL1        0.2526
@<TRIPOS>UNITY_ATOM_ATTR
10 1
charge 1
12 1
charge -1
@<TRIPOS>BOND
     1    36    37    1
     2    37    30    1
     3    30    31   ar
     4    31    32   ar
     5    32    33   ar
     6    33    29    1
     7    29    28    1
     8    28    26    1
     9    26    27    1
    10    26    25    1
    11    25    24    1
    12    24    23    1
    13    23     1    1
    14     1     2   am
    15     2     3    2
    16     2     4    1
    17     4     5   ar
    18     5     6   ar
    19     6     7   ar
    20     7    10    1
    21    10    11    2
    22    10    12    1
    23     7     8   ar
    24     8     9   ar
    25     1    13    1
    26    13    14   ar
    27    14    15   ar
    28    15    16   ar
    29    16    19    1
    30    19    20    1
    31    16    17   ar
    32    17    21    1
    33    21    22    1
    34    17    18   ar
    35    33    34   ar
    36    34    35   ar
    37    35    38    1
    38    38    39    1
    39    35    30   ar
    40     9     4   ar
    41    18    13   ar
@<TRIPOS>MOLECULE
*****
 39 41 0 0 0
SMALL
GASTEIGER

@<TRIPOS>ATOM
      1 N         141.6037  139.1063  164.2802 N.am    1  UNL1       -0.2550
      2 C         142.1929  140.0750  165.2622 C.2     1  UNL1        0.2527
      3 O         143.2696  141.0238  164.8258 O.2     1  UNL1       -0.2696
      4 C         141.7055  140.0948  166.6806 C.ar    1  UNL1        0.0543
      5 C         140.4077  140.7669  167.0183 C.ar    1  UNL1        0.0108
      6 C         139.9203  140.7868  168.4368 C.ar    1  UNL1        0.0754
      7 C         140.7306  140.1345  169.5175 C.ar    1  UNL1        0.2901
      8 C         142.0284  139.4624  169.1798 C.ar    1  UNL1        0.0754
      9 C         142.5158  139.4426  167.7614 C.ar    1  UNL1        0.0108
     10 N         140.2432  140.1544  170.9360 N.pl3   1  UNL1        0.0809
     11 O         139.2231  139.1539  171.3926 O.2     1  UNL1        0.0415
     12 O         140.7759  141.1746  171.8979 O.co2   1  UNL1       -0.5760
     13 C         142.0911  139.0864  162.8617 C.ar    1  UNL1        0.0573
     14 C         143.1518  138.1103  162.4468 C.ar    1  UNL1        0.0182
     15 C         143.6393  138.0903  161.0284 C.ar    1  UNL1        0.0413
     16 C         143.0660  139.0465  160.0248 C.ar    1  UNL1        0.1725
     17 C         142.0053  140.0226  160.4397 C.ar    1  UNL1        0.1736
     18 C         141.5179  140.0425  161.8582 C.ar    1  UNL1        0.0549
     19 O         143.5535  139.0266  158.6063 O.3     1  UNL1       -0.4684
     20 C         142.7967  138.2580  157.5639 C.3     1  UNL1        0.2526
     21 O         141.4320  140.9788  159.4361 O.3     1  UNL1       -0.4683
     22 C         140.1538  140.6439  158.7262 C.3     1  UNL1        0.2526
     23 C         140.5270  138.1574  164.7166 C.3     1  UNL1        0.0999
     24 C         139.1164  138.3564  164.2470 C.3     1  UNL1        0.0392
     25 C         138.4919  139.7190  164.3049 C.3     1  UNL1        0.0739
     26 N         137.8472  140.3011  163.0820 N.3     1  UNL1       -0.2711
     27 C         137.8877  139.5509  161.7836 C.3     1  UNL1        0.0896
     28 C         137.1620  141.6333  163.1574 C.3     1  UNL1        0.0768
     29 C         137.8299  142.7819  163.8533 C.3     1  UNL1        0.0438
     30 C         141.9121  144.1435  162.5372 C.ar    1  UNL1        0.1724
     31 C         141.6402  143.8833  163.9892 C.ar    1  UNL1        0.0397
     32 C         140.2795  143.4294  164.4279 C.ar    1  UNL1       -0.0009
     33 C         139.1907  143.2358  163.4146 C.ar    1  UNL1       -0.0176
     34 C         139.4625  143.4961  161.9626 C.ar    1  UNL1        0.0358
     35 C         140.8233  143.9499  161.5239 C.ar    1  UNL1        0.1721
     36 C         144.4800  143.7668  162.4192 C.3     1  UNL1        0.2526
     37 O         143.2728  144.5974  162.0986 O.3     1  UNL1       -0.4684
     38 O         141.0951  144.2102  160.0719 O.3     1  UNL1       -0.4684
     39 C         140.4582  145.3835  159.3881 C.3     1  UNL1        0.2526
@<TRIPOS>UNITY_ATOM_ATTR
10 1
charge 1
12 1
charge -1
@<TRIPOS>BOND
     1    36    37    1
     2    37    30    1
     3    30    31   ar
     4    31    32   ar
     5    32    33   ar
     6    33    29    1
     7    29    28    1
     8    28    26    1
     9    26    27    1
    10    26    25    1
    11    25    24    1
    12    24    23    1
    13    23     1    1
    14     1     2   am
    15     2     3    2
    16     2     4    1
    17     4     5   ar
    18     5     6   ar
    19     6     7   ar
    20     7    10    1
    21    10    11    2
    22    10    12    1
    23     7     8   ar
    24     8     9   ar
    25     1    13    1
    26    13    14   ar
    27    14    15   ar
    28    15    16   ar
    29    16    19    1
    30    19    20    1
    31    16    17   ar
    32    17    21    1
    33    21    22    1
    34    17    18   ar
    35    33    34   ar
    36    34    35   ar
    37    35    38    1
    38    38    39    1
    39    35    30   ar
    40     9     4   ar
    41    18    13   ar
@<TRIPOS>MOLECULE
*****
 39 41 0 0 0
SMALL
GASTEIGER

@<TRIPOS>ATOM
      1 N         142.7317  140.5204  164.2537 N.am    1  UNL1       -0.2550
      2 C         142.0599  139.6324  165.2586 C.2     1  UNL1        0.2527
      3 O         141.5610  138.2786  164.8483 O.2     1  UNL1       -0.2696
      4 C         141.8870  140.0981  166.6740 C.ar    1  UNL1        0.0543
      5 C         140.7391  140.9942  167.0338 C.ar    1  UNL1        0.0108
      6 C         140.5663  141.4599  168.4492 C.ar    1  UNL1        0.0754
      7 C         141.5413  141.0296  169.5047 C.ar    1  UNL1        0.2901
      8 C         142.6892  140.1335  169.1449 C.ar    1  UNL1        0.0754
      9 C         142.8620  139.6678  167.7296 C.ar    1  UNL1        0.0108
     10 N         141.3684  141.4953  170.9201 N.pl3   1  UNL1        0.0809
     11 O         142.1030  142.7100  171.4049 O.2     1  UNL1        0.0415
     12 O         140.4611  140.7464  171.8506 O.co2   1  UNL1       -0.5760
     13 C         142.9046  140.0547  162.8383 C.ar    1  UNL1        0.0573
     14 C         143.9568  139.0385  162.5063 C.ar    1  UNL1        0.0182
     15 C         144.1298  138.5728  161.0910 C.ar    1  UNL1        0.0413
     16 C         143.2505  139.1233  160.0076 C.ar    1  UNL1        0.1725
     17 C         142.1982  140.1395  160.3395 C.ar    1  UNL1        0.1736
     18 C         142.0253  140.6052  161.7549 C.ar    1  UNL1        0.0549
     19 O         143.4234  138.6576  158.5922 O.3     1  UNL1       -0.4684
     20 C         142.6451  137.4774  158.0906 C.3     1  UNL1        0.2526
     21 O         141.3189  140.6899  159.2561 O.3     1  UNL1       -0.4683
     22 C         140.5204  141.9363  159.4990 C.3     1  UNL1        0.2526
     23 C         143.2306  141.8742  164.6640 C.3     1  UNL1        0.0999
     24 C         142.5491  143.1102  164.1564 C.3     1  UNL1        0.0392
     25 C         141.4512  143.7442  164.9581 C.3     1  UNL1        0.0739
     26 N         140.3640  144.5114  164.2657 N.3     1  UNL1       -0.2711
     27 C         140.5851  145.0401  162.8794 C.3     1  UNL1        0.0896
     28 C         139.0557  144.7499  164.9595 C.3     1  UNL1        0.0768
     29 C         137.8185  144.0430  164.4909 C.3     1  UNL1        0.0438
     30 C         138.1032  139.8693  162.8328 C.ar    1  UNL1        0.1724
     31 C         137.8311  141.0240  161.9150 C.ar    1  UNL1        0.0397
     32 C         137.7361  142.4152  162.4677 C.ar    1  UNL1       -0.0009
     33 C         137.9134  142.6518  163.9382 C.ar    1  UNL1       -0.0176
     34 C         138.1855  141.4970  164.8561 C.ar    1  UNL1        0.0358
     35 C         138.2805  140.1058  164.3034 C.ar    1  UNL1        0.1721
     36 C         139.5299  137.9234  161.8695 C.3     1  UNL1        0.2526
     37 O         138.1981  138.4781  162.2802 O.3     1  UNL1       -0.4684
     38 O         138.5526  138.9511  165.2214 O.3     1  UNL1       -0.4684
     39 C         137.8263  138.8455  166.5295 C.3     1  UNL1        0.2526
@<TRIPOS>UNITY_ATOM_ATTR
10 1
charge 1
12 1
charge -1
@<TRIPOS>BOND
     1    36    37    1
     2    37    30    1
     3    30    31   ar
     4    31    32   ar
     5    32    33   ar
     6    33    29    1
     7    29    28    1
     8    28    26    1
     9    26    27    1
    10    26    25    1
    11    25    24    1
    12    24    23    1
    13    23     1    1
    14     1     2   am
    15     2     3    2
    16     2     4    1
    17     4     5   ar
    18     5     6   ar
    19     6     7   ar
    20     7    10    1
    21    10    11    2
    22    10    12    1
    23     7     8   ar
    24     8     9   ar
    25     1    13    1
    26    13    14   ar
    27    14    15   ar
    28    15    16   ar
    29    16    19    1
    30    19    20    1
    31    16    17   ar
    32    17    21    1
    33    21    22    1
    34    17    18   ar
    35    33    34   ar
    36    34    35   ar
    37    35    38    1
    38    38    39    1
    39    35    30   ar
    40     9     4   ar
    41    18    13   ar
@<TRIPOS>MOLECULE
*****
 39 41 0 0 0
SMALL
GASTEIGER

@<TRIPOS>ATOM
      1 N         140.9589  142.8501  164.4288 N.am    1  UNL1       -0.2550
      2 C         139.7876  142.8426  165.3657 C.2     1  UNL1        0.2527
      3 O         138.4797  143.4383  164.9362 O.2     1  UNL1       -0.2696
      4 C         139.9242  142.2393  166.7322 C.ar    1  UNL1        0.0543
      5 C         139.6949  140.7702  166.9299 C.ar    1  UNL1        0.0108
      6 C         139.8315  140.1669  168.2965 C.ar    1  UNL1        0.0754
      7 C         140.1974  141.0328  169.4653 C.ar    1  UNL1        0.2901
      8 C         140.4267  142.5019  169.2677 C.ar    1  UNL1        0.0754
      9 C         140.2901  143.1052  167.9012 C.ar    1  UNL1        0.0108
     10 N         140.3340  140.4296  170.8319 N.pl3   1  UNL1        0.0809
     11 O         139.4244  139.3139  171.2536 O.2     1  UNL1        0.0415
     12 O         141.3802  140.9420  171.7768 O.co2   1  UNL1       -0.5760
     13 C         140.8223  143.4534  163.0622 C.ar    1  UNL1        0.0573
     14 C         140.7390  144.9428  162.9048 C.ar    1  UNL1        0.0182
     15 C         140.6025  145.5461  161.5383 C.ar    1  UNL1        0.0413
     16 C         140.5492  144.6599  160.3291 C.ar    1  UNL1        0.1725
     17 C         140.6325  143.1705  160.4865 C.ar    1  UNL1        0.1736
     18 C         140.7691  142.5673  161.8531 C.ar    1  UNL1        0.0549
     19 O         140.4127  145.2632  158.9626 O.3     1  UNL1       -0.4684
     20 C         141.6346  145.5265  158.1334 C.3     1  UNL1        0.2526
     21 O         140.5793  142.2844  159.2774 O.3     1  UNL1       -0.4683
     22 C         141.8420  141.6916  158.7258 C.3     1  UNL1        0.2526
     23 C         142.2668  142.2544  164.8583 C.3     1  UNL1        0.0999
     24 C         143.2670  143.0940  165.5962 C.3     1  UNL1        0.0392
     25 C         144.6249  143.3350  165.0062 C.3     1  UNL1        0.0739
     26 N         144.9560  142.8017  163.6439 N.3     1  UNL1       -0.2711
     27 C         144.4706  143.5191  162.4192 C.3     1  UNL1        0.0896
     28 C         145.7725  141.5509  163.5062 C.3     1  UNL1        0.0768
     29 C         145.2619  140.2564  164.0660 C.3     1  UNL1        0.0438
     30 C         141.6883  138.2535  162.2037 C.ar    1  UNL1        0.1724
     31 C         142.5645  139.1457  161.3753 C.ar    1  UNL1        0.0397
     32 C         143.7556  139.8133  161.9960 C.ar    1  UNL1       -0.0009
     33 C         144.0707  139.5888  163.4453 C.ar    1  UNL1       -0.0176
     34 C         143.1946  138.6966  164.2737 C.ar    1  UNL1        0.0358
     35 C         142.0034  138.0290  163.6529 C.ar    1  UNL1        0.1721
     36 C         139.6292  138.3429  160.6220 C.3     1  UNL1        0.2526
     37 O         140.4972  137.5859  161.5829 O.3     1  UNL1       -0.4684
     38 O         141.1272  137.1368  164.4815 O.3     1  UNL1       -0.4684
     39 C         139.7764  137.6145  164.9253 C.3     1  UNL1        0.2526
@<TRIPOS>UNITY_ATOM_ATTR
10 1
charge 1
12 1
charge -1
@<TRIPOS>BOND
     1    36    37    1
     2    37    30    1
     3    30    31   ar
     4    31    32   ar
     5    32    33   ar
     6    33    29    1
     7    29    28    1
     8    28    26    1
     9    26    27    1
    10    26    25    1
    11    25    24    1
    12    24    23    1
    13    23     1    1
    14     1     2   am
    15     2     3    2
    16     2     4    1
    17     4     5   ar
    18     5     6   ar
    19     6     7   ar
    20     7    10    1
    21    10    11    2
    22    10    12    1
    23     7     8   ar
    24     8     9   ar
    25     1    13    1
    26    13    14   ar
    27    14    15   ar
    28    15    16   ar
    29    16    19    1
    30    19    20    1
    31    16    17   ar
    32    17    21    1
    33    21    22    1
    34    17    18   ar
    35    33    34   ar
    36    34    35   ar
    37    35    38    1
    38    38    39    1
    39    35    30   ar
    40     9     4   ar
    41    18    13   ar
@<TRIPOS>MOLECULE
*****
 39 41 0 0 0
SMALL
GASTEIGER

@<TRIPOS>ATOM
      1 N         141.6580  140.4234  164.6002 N.am    1  UNL1       -0.2550
      2 C         140.3535  140.5015  165.3364 C.2     1  UNL1        0.2527
      3 O         139.0855  140.0653  164.6640 O.2     1  UNL1       -0.2696
      4 C         140.3168  141.0157  166.7450 C.ar    1  UNL1        0.0543
      5 C         140.2169  140.0544  167.8920 C.ar    1  UNL1        0.0108
      6 C         140.1802  140.5687  169.3007 C.ar    1  UNL1        0.0754
      7 C         140.2436  142.0443  169.5622 C.ar    1  UNL1        0.2901
      8 C         140.3435  143.0057  168.4151 C.ar    1  UNL1        0.0754
      9 C         140.3802  142.4915  167.0066 C.ar    1  UNL1        0.0108
     10 N         140.2069  142.5586  170.9708 N.pl3   1  UNL1        0.0809
     11 O         139.0941  143.4634  171.4102 O.2     1  UNL1        0.0415
     12 O         141.2831  142.1682  171.9400 O.co2   1  UNL1       -0.5760
     13 C         141.6947  139.9092  163.1915 C.ar    1  UNL1        0.0573
     14 C         142.0231  138.4696  162.9270 C.ar    1  UNL1        0.0182
     15 C         142.0598  137.9554  161.5184 C.ar    1  UNL1        0.0413
     16 C         141.7681  138.8806  160.3743 C.ar    1  UNL1        0.1725
     17 C         141.4397  140.3201  160.6388 C.ar    1  UNL1        0.1736
     18 C         141.4030  140.8344  162.0475 C.ar    1  UNL1        0.0549
     19 O         141.8048  138.3663  158.9657 O.3     1  UNL1       -0.4684
     20 C         143.0082  138.6182  158.1064 C.3     1  UNL1        0.2526
     21 O         141.1481  141.2453  159.4948 O.3     1  UNL1       -0.4683
     22 C         142.2372  142.1107  158.9337 C.3     1  UNL1        0.2526
     23 C         142.9259  140.8596  165.2726 C.3     1  UNL1        0.0999
     24 C         143.3426  142.2998  165.2259 C.3     1  UNL1        0.0392
     25 C         144.5008  142.7181  164.3694 C.3     1  UNL1        0.0739
     26 N         144.2721  143.5982  163.1765 N.3     1  UNL1       -0.2711
     27 C         144.3777  143.0286  161.7928 C.3     1  UNL1        0.0896
     28 C         143.9378  145.0480  163.3672 C.3     1  UNL1        0.0768
     29 C         142.5638  145.4481  163.8165 C.3     1  UNL1        0.0438
     30 C         138.9420  143.5156  161.9730 C.ar    1  UNL1        0.1724
     31 C         139.1770  143.4119  163.4508 C.ar    1  UNL1        0.0397
     32 C         140.3843  144.0561  164.0653 C.ar    1  UNL1       -0.0009
     33 C         141.3566  144.8039  163.2020 C.ar    1  UNL1       -0.0176
     34 C         141.1216  144.9076  161.7242 C.ar    1  UNL1        0.0358
     35 C         139.9143  144.2635  161.1097 C.ar    1  UNL1        0.1721
     36 C         137.8175  141.4675  160.8369 C.3     1  UNL1        0.2526
     37 O         137.7348  142.8715  161.3585 O.3     1  UNL1       -0.4684
     38 O         139.6793  144.3672  159.6318 O.3     1  UNL1       -0.4684
     39 C         140.3616  145.4412  158.8374 C.3     1  UNL1        0.2526
@<TRIPOS>UNITY_ATOM_ATTR
10 1
charge 1
12 1
charge -1
@<TRIPOS>BOND
     1    36    37    1
     2    37    30    1
     3    30    31   ar
     4    31    32   ar
     5    32    33   ar
     6    33    29    1
     7    29    28    1
     8    28    26    1
     9    26    27    1
    10    26    25    1
    11    25    24    1
    12    24    23    1
    13    23     1    1
    14     1     2   am
    15     2     3    2
    16     2     4    1
    17     4     5   ar
    18     5     6   ar
    19     6     7   ar
    20     7    10    1
    21    10    11    2
    22    10    12    1
    23     7     8   ar
    24     8     9   ar
    25     1    13    1
    26    13    14   ar
    27    14    15   ar
    28    15    16   ar
    29    16    19    1
    30    19    20    1
    31    16    17   ar
    32    17    21    1
    33    21    22    1
    34    17    18   ar
    35    33    34   ar
    36    34    35   ar
    37    35    38    1
    38    38    39    1
    39    35    30   ar
    40     9     4   ar
    41    18    13   ar
@<TRIPOS>MOLECULE
*****
 39 41 0 0 0
SMALL
GASTEIGER

@<TRIPOS>ATOM
      1 N         139.9582  142.1085  164.2286 N.am    1  UNL1       -0.2550
      2 C         141.1158  142.1280  165.1824 C.2     1  UNL1        0.2527
      3 O         142.4903  142.4672  164.6869 O.2     1  UNL1       -0.2696
      4 C         140.8987  141.8082  166.6318 C.ar    1  UNL1        0.0543
      5 C         140.5600  142.9036  167.5989 C.ar    1  UNL1        0.0108
      6 C         140.3430  142.5838  169.0483 C.ar    1  UNL1        0.0754
      7 C         140.4646  141.1686  169.5305 C.ar    1  UNL1        0.2901
      8 C         140.8033  140.0733  168.5633 C.ar    1  UNL1        0.0754
      9 C         141.0204  140.3930  167.1140 C.ar    1  UNL1        0.0108
     10 N         140.2476  140.8488  170.9799 N.pl3   1  UNL1        0.0809
     11 O         140.6396  141.8415  172.0338 O.2     1  UNL1        0.0415
     12 O         139.6385  139.5363  171.3753 O.co2   1  UNL1       -0.5760
     13 C         140.1753  142.4283  162.7792 C.ar    1  UNL1        0.0573
     14 C         140.6863  141.3708  161.8462 C.ar    1  UNL1        0.0182
     15 C         140.9033  141.6905  160.3969 C.ar    1  UNL1        0.0413
     16 C         140.6093  143.0678  159.8805 C.ar    1  UNL1        0.1725
     17 C         140.0983  144.1253  160.8134 C.ar    1  UNL1        0.1736
     18 C         139.8812  143.8056  162.2629 C.ar    1  UNL1        0.0549
     19 O         140.8263  143.3875  158.4311 O.3     1  UNL1       -0.4684
     20 C         142.1139  144.0153  157.9862 C.3     1  UNL1        0.2526
     21 O         139.8042  145.5026  160.2971 O.3     1  UNL1       -0.4683
     22 C         139.4855  146.6110  161.2562 C.3     1  UNL1        0.2526
     23 C         138.5837  141.7694  164.7242 C.3     1  UNL1        0.0999
     24 C         137.8765  140.5544  164.2011 C.3     1  UNL1        0.0392
     25 C         138.6577  139.3194  163.8627 C.3     1  UNL1        0.0739
     26 N         139.0015  138.3314  164.9376 N.3     1  UNL1       -0.2711
     27 C         138.1760  138.2663  166.1884 C.3     1  UNL1        0.0896
     28 C         140.1708  137.4084  164.7619 C.3     1  UNL1        0.0768
     29 C         141.5677  137.9540  164.7896 C.3     1  UNL1        0.0438
     30 C         143.6368  139.0378  160.9432 C.ar    1  UNL1        0.1724
     31 C         142.5480  138.0060  160.9443 C.ar    1  UNL1        0.0397
     32 C         141.8584  137.6447  162.2264 C.ar    1  UNL1       -0.0009
     33 C         142.2574  138.3153  163.5075 C.ar    1  UNL1       -0.0176
     34 C         143.3461  139.3471  163.5064 C.ar    1  UNL1        0.0358
     35 C         144.0358  139.7083  162.2242 C.ar    1  UNL1        0.1721
     36 C         143.8476  140.5707  158.8562 C.3     1  UNL1        0.2526
     37 O         144.3264  139.3991  159.6611 O.3     1  UNL1       -0.4684
     38 O         145.1246  140.7402  162.2232 O.3     1  UNL1       -0.4684
     39 C         145.6046  141.3253  163.5182 C.3     1  UNL1        0.2526
@<TRIPOS>UNITY_ATOM_ATTR
10 1
charge 1
12 1
charge -1
@<TRIPOS>BOND
     1    36    37    1
     2    37    30    1
     3    30    31   ar
     4    31    32   ar
     5    32    33   ar
     6    33    29    1
     7    29    28    1
     8    28    26    1
     9    26    27    1
    10    26    25    1
    11    25    24    1
    12    24    23    1
    13    23     1    1
    14     1     2   am
    15     2     3    2
    16     2     4    1
    17     4     5   ar
    18     5     6   ar
    19     6     7   ar
    20     7    10    1
    21    10    11    2
    22    10    12    1
    23     7     8   ar
    24     8     9   ar
    25     1    13    1
    26    13    14   ar
    27    14    15   ar
    28    15    16   ar
    29    16    19    1
    30    19    20    1
    31    16    17   ar
    32    17    21    1
    33    21    22    1
    34    17    18   ar
    35    33    34   ar
    36    34    35   ar
    37    35    38    1
    38    38    39    1
    39    35    30   ar
    40     9     4   ar
    41    18    13   ar
@<TRIPOS>MOLECULE
*****
 39 41 0 0 0
SMALL
GASTEIGER

@<TRIPOS>ATOM
      1 N         141.4058  143.1987  163.8793 N.am    1  UNL1       -0.2550
      2 C         141.0497  142.1450  164.8857 C.2     1  UNL1        0.2527
      3 O         140.3681  140.8845  164.4425 O.2     1  UNL1       -0.2696
      4 C         141.3753  142.3518  166.3352 C.ar    1  UNL1        0.0543
      5 C         142.7602  142.0737  166.8399 C.ar    1  UNL1        0.0108
      6 C         143.0858  142.2806  168.2895 C.ar    1  UNL1        0.0754
      7 C         142.0264  142.7654  169.2343 C.ar    1  UNL1        0.2901
      8 C         140.6415  143.0434  168.7296 C.ar    1  UNL1        0.0754
      9 C         140.3159  142.8366  167.2801 C.ar    1  UNL1        0.0108
     10 N         142.3520  142.9722  170.6840 N.pl3   1  UNL1        0.0809
     11 O         141.6013  142.2122  171.7370 O.2     1  UNL1        0.0415
     12 O         143.4282  143.9388  171.0805 O.co2   1  UNL1       -0.5760
     13 C         141.0802  142.9920  162.4297 C.ar    1  UNL1        0.0573
     14 C         141.2940  141.6488  161.7972 C.ar    1  UNL1        0.0182
     15 C         140.9685  141.4420  160.3476 C.ar    1  UNL1        0.0413
     16 C         140.4291  142.5785  159.5305 C.ar    1  UNL1        0.1725
     17 C         140.2153  143.9217  160.1630 C.ar    1  UNL1        0.1736
     18 C         140.5409  144.1284  161.6127 C.ar    1  UNL1        0.0549
     19 O         140.1035  142.3717  158.0810 O.3     1  UNL1       -0.4684
     20 C         138.6852  142.1274  157.6583 C.3     1  UNL1        0.2526
     21 O         139.6760  145.0581  159.3460 O.3     1  UNL1       -0.4683
     22 C         140.5407  145.7140  158.3106 C.3     1  UNL1        0.2526
     23 C         142.0874  144.4593  164.3225 C.3     1  UNL1        0.0999
     24 C         143.5719  144.6046  164.1644 C.3     1  UNL1        0.0392
     25 C         144.2246  144.2586  162.8589 C.3     1  UNL1        0.0739
     26 N         144.8221  142.8978  162.6565 N.3     1  UNL1       -0.2711
     27 C         144.9929  142.3523  161.2696 C.3     1  UNL1        0.0896
     28 C         145.2489  142.0823  163.8410 C.3     1  UNL1        0.0768
     29 C         145.4715  140.6062  163.6943 C.3     1  UNL1        0.0438
     30 C         141.9541  137.8310  163.2748 C.ar    1  UNL1        0.1724
     31 C         142.3359  138.3589  164.6259 C.ar    1  UNL1        0.0397
     32 C         143.5084  139.2840  164.7657 C.ar    1  UNL1       -0.0009
     33 C         144.2990  139.6812  163.5545 C.ar    1  UNL1       -0.0176
     34 C         143.9172  139.1533  162.2034 C.ar    1  UNL1        0.0358
     35 C         142.7447  138.2282  162.0636 C.ar    1  UNL1        0.1721
     36 C         139.3888  137.4246  163.3371 C.3     1  UNL1        0.2526
     37 O         140.7816  136.9060  163.1349 O.3     1  UNL1       -0.4684
     38 O         142.3629  137.7003  160.7124 O.3     1  UNL1       -0.4684
     39 C         142.9358  138.3237  159.4743 C.3     1  UNL1        0.2526
@<TRIPOS>UNITY_ATOM_ATTR
10 1
charge 1
12 1
charge -1
@<TRIPOS>BOND
     1    36    37    1
     2    37    30    1
     3    30    31   ar
     4    31    32   ar
     5    32    33   ar
     6    33    29    1
     7    29    28    1
     8    28    26    1
     9    26    27    1
    10    26    25    1
    11    25    24    1
    12    24    23    1
    13    23     1    1
    14     1     2   am
    15     2     3    2
    16     2     4    1
    17     4     5   ar
    18     5     6   ar
    19     6     7   ar
    20     7    10    1
    21    10    11    2
    22    10    12    1
    23     7     8   ar
    24     8     9   ar
    25     1    13    1
    26    13    14   ar
    27    14    15   ar
    28    15    16   ar
    29    16    19    1
    30    19    20    1
    31    16    17   ar
    32    17    21    1
    33    21    22    1
    34    17    18   ar
    35    33    34   ar
    36    34    35   ar
    37    35    38    1
    38    38    39    1
    39    35    30   ar
    40     9     4   ar
    41    18    13   ar
@<TRIPOS>MOLECULE
*****
 39 41 0 0 0
SMALL
GASTEIGER

@<TRIPOS>ATOM
      1 N         139.9911  143.1288  164.3257 N.am    1  UNL1       -0.2550
      2 C         141.0363  142.8060  165.3520 C.2     1  UNL1        0.2527
      3 O         142.4801  143.0990  165.0699 O.2     1  UNL1       -0.2696
      4 C         140.6377  142.1903  166.6604 C.ar    1  UNL1        0.0543
      5 C         140.6613  143.0128  167.9145 C.ar    1  UNL1        0.0108
      6 C         140.2626  142.3969  169.2229 C.ar    1  UNL1        0.0754
      7 C         139.8404  140.9586  169.2771 C.ar    1  UNL1        0.2901
      8 C         139.8169  140.1361  168.0230 C.ar    1  UNL1        0.0754
      9 C         140.2155  140.7519  166.7146 C.ar    1  UNL1        0.0108
     10 N         139.4417  140.3428  170.5855 N.pl3   1  UNL1        0.0809
     11 O         138.1788  139.5393  170.6824 O.2     1  UNL1        0.0415
     12 O         140.3060  140.5304  171.7971 O.co2   1  UNL1       -0.5760
     13 C         140.3898  143.7446  163.0172 C.ar    1  UNL1        0.0573
     14 C         140.0201  145.1664  162.7140 C.ar    1  UNL1        0.0182
     15 C         140.4187  145.7822  161.4056 C.ar    1  UNL1        0.0413
     16 C         141.1869  144.9763  160.4004 C.ar    1  UNL1        0.1725
     17 C         141.5565  143.5545  160.7037 C.ar    1  UNL1        0.1736
     18 C         141.1579  142.9387  162.0121 C.ar    1  UNL1        0.0549
     19 O         141.5855  145.5921  159.0921 O.3     1  UNL1       -0.4684
     20 C         140.5902  145.6872  157.9738 C.3     1  UNL1        0.2526
     21 O         142.3247  142.7485  159.6986 O.3     1  UNL1       -0.4683
     22 C         141.6295  141.6862  158.8998 C.3     1  UNL1        0.2526
     23 C         138.5473  142.8358  164.6077 C.3     1  UNL1        0.0999
     24 C         137.6378  142.4067  163.4949 C.3     1  UNL1        0.0392
     25 C         137.4134  140.9474  163.2301 C.3     1  UNL1        0.0739
     26 N         137.7726  140.3633  161.8960 N.3     1  UNL1       -0.2711
     27 C         138.1521  141.2659  160.7597 C.3     1  UNL1        0.0896
     28 C         137.7524  138.8765  161.6983 C.3     1  UNL1        0.0768
     29 C         139.0310  138.1372  161.4364 C.3     1  UNL1        0.0438
     30 C         142.3789  138.2987  164.4389 C.ar    1  UNL1        0.1724
     31 C         141.0843  137.6298  164.7944 C.ar    1  UNL1        0.0397
     32 C         139.9683  137.5760  163.7936 C.ar    1  UNL1       -0.0009
     33 C         140.1469  138.1910  162.4372 C.ar    1  UNL1       -0.0176
     34 C         141.4416  138.8599  162.0817 C.ar    1  UNL1        0.0358
     35 C         142.5576  138.9137  163.0826 C.ar    1  UNL1        0.1721
     36 C         143.2047  138.7057  166.8684 C.3     1  UNL1        0.2526
     37 O         143.4949  138.3525  165.4398 O.3     1  UNL1       -0.4684
     38 O         143.8523  139.5826  162.7270 O.3     1  UNL1       -0.4684
     39 C         144.0368  140.1834  161.3650 C.3     1  UNL1        0.2526
@<TRIPOS>UNITY_ATOM_ATTR
10 1
charge 1
12 1
charge -1
@<TRIPOS>BOND
     1    36    37    1
     2    37    30    1
     3    30    31   ar
     4    31    32   ar
     5    32    33   ar
     6    33    29    1
     7    29    28    1
     8    28    26    1
     9    26    27    1
    10    26    25    1
    11    25    24    1
    12    24    23    1
    13    23     1    1
    14     1     2   am
    15     2     3    2
    16     2     4    1
    17     4     5   ar
    18     5     6   ar
    19     6     7   ar
    20     7    10    1
    21    10    11    2
    22    10    12    1
    23     7     8   ar
    24     8     9   ar
    25     1    13    1
    26    13    14   ar
    27    14    15   ar
    28    15    16   ar
    29    16    19    1
    30    19    20    1
    31    16    17   ar
    32    17    21    1
    33    21    22    1
    34    17    18   ar
    35    33    34   ar
    36    34    35   ar
    37    35    38    1
    38    38    39    1
    39    35    30   ar
    40     9     4   ar
    41    18    13   ar
@<TRIPOS>MOLECULE
*****
 39 41 0 0 0
SMALL
GASTEIGER

@<TRIPOS>ATOM
      1 N         140.5662  140.2550  164.1737 N.am    1  UNL1       -0.2550
      2 C         139.5341  140.6858  165.1732 C.2     1  UNL1        0.2527
      3 O         138.0892  140.7557  164.7764 O.2     1  UNL1       -0.2696
      4 C         139.9468  141.0466  166.5694 C.ar    1  UNL1        0.0543
      5 C         140.3671  142.4508  166.8880 C.ar    1  UNL1        0.0108
      6 C         140.7798  142.8116  168.2842 C.ar    1  UNL1        0.0754
      7 C         140.7722  141.7683  169.3618 C.ar    1  UNL1        0.2901
      8 C         140.3519  140.3640  169.0432 C.ar    1  UNL1        0.0754
      9 C         139.9392  140.0032  167.6470 C.ar    1  UNL1        0.0108
     10 N         141.1849  142.1291  170.7581 N.pl3   1  UNL1        0.0809
     11 O         142.2814  143.1280  170.9816 O.2     1  UNL1        0.0415
     12 O         140.5012  141.4910  171.9308 O.co2   1  UNL1       -0.5760
     13 C         140.1536  139.8941  162.7774 C.ar    1  UNL1        0.0573
     14 C         139.6739  138.5061  162.4722 C.ar    1  UNL1        0.0182
     15 C         139.2612  138.1452  161.0760 C.ar    1  UNL1        0.0413
     16 C         139.3282  139.1724  159.9849 C.ar    1  UNL1        0.1725
     17 C         139.8079  140.5604  160.2901 C.ar    1  UNL1        0.1736
     18 C         140.2206  140.9213  161.6864 C.ar    1  UNL1        0.0549
     19 O         138.9155  138.8115  158.5887 O.3     1  UNL1       -0.4684
     20 C         139.8780  138.1042  157.6813 C.3     1  UNL1        0.2526
     21 O         139.8749  141.5876  159.1991 O.3     1  UNL1       -0.4683
     22 C         141.1064  141.7008  158.3501 C.3     1  UNL1        0.2526
     23 C         142.0111  140.1851  164.5704 C.3     1  UNL1        0.0999
     24 C         142.9900  139.4424  163.7101 C.3     1  UNL1        0.0392
     25 C         143.6316  140.1281  162.5404 C.3     1  UNL1        0.0739
     26 N         144.6724  141.1838  162.7684 N.3     1  UNL1       -0.2711
     27 C         145.5820  141.0958  163.9580 C.3     1  UNL1        0.0896
     28 C         144.8038  142.3276  161.8069 C.3     1  UNL1        0.0768
     29 C         144.2926  143.6865  162.1836 C.3     1  UNL1        0.0438
     30 C         139.8620  144.4510  162.3726 C.ar    1  UNL1        0.1724
     31 C         140.6174  144.1056  163.6216 C.ar    1  UNL1        0.0397
     32 C         142.0943  143.8507  163.5586 C.ar    1  UNL1       -0.0009
     33 C         142.8157  143.9414  162.2466 C.ar    1  UNL1       -0.0176
     34 C         142.0603  144.2868  160.9977 C.ar    1  UNL1        0.0358
     35 C         140.5834  144.5417  161.0607 C.ar    1  UNL1        0.1721
     36 C         137.5591  144.0670  163.5124 C.3     1  UNL1        0.2526
     37 O         138.3852  144.7059  162.4356 O.3     1  UNL1       -0.4684
     38 O         139.8280  144.8872  159.8116 O.3     1  UNL1       -0.4684
     39 C         140.5457  145.5028  158.6472 C.3     1  UNL1        0.2526
@<TRIPOS>UNITY_ATOM_ATTR
10 1
charge 1
12 1
charge -1
@<TRIPOS>BOND
     1    36    37    1
     2    37    30    1
     3    30    31   ar
     4    31    32   ar
     5    32    33   ar
     6    33    29    1
     7    29    28    1
     8    28    26    1
     9    26    27    1
    10    26    25    1
    11    25    24    1
    12    24    23    1
    13    23     1    1
    14     1     2   am
    15     2     3    2
    16     2     4    1
    17     4     5   ar
    18     5     6   ar
    19     6     7   ar
    20     7    10    1
    21    10    11    2
    22    10    12    1
    23     7     8   ar
    24     8     9   ar
    25     1    13    1
    26    13    14   ar
    27    14    15   ar
    28    15    16   ar
    29    16    19    1
    30    19    20    1
    31    16    17   ar
    32    17    21    1
    33    21    22    1
    34    17    18   ar
    35    33    34   ar
    36    34    35   ar
    37    35    38    1
    38    38    39    1
    39    35    30   ar
    40     9     4   ar
    41    18    13   ar
