@<TRIPOS>MOLECULE
*****
 30 34 0 0 0
SMALL
GASTEIGER

@<TRIPOS>ATOM
      1 C         141.5749  143.4316  162.8742 C.ar    1  UNL1        0.0884
      2 C         142.8491  143.8460  163.5484 C.ar    1  UNL1        0.0197
      3 C         143.3281  143.1098  164.7642 C.ar    1  UNL1        0.0030
      4 C         142.5329  141.9590  165.3060 C.ar    1  UNL1        0.0174
      5 C         143.0120  141.2228  166.5219 C.ar    1  UNL1       -0.0027
      6 C         142.2168  140.0720  167.0636 C.ar    1  UNL1       -0.0207
      7 C         140.9425  139.6576  166.3894 C.ar    1  UNL1       -0.0027
      8 C         140.4635  140.3938  165.1735 C.ar    1  UNL1        0.0188
      9 C         141.2587  141.5446  164.6318 C.ar    1  UNL1        0.0812
     10 N         140.7797  142.2808  163.4159 N.ar    1  UNL1       -0.2448
     11 C         139.0433  145.4871  162.7498 C.3     1  UNL1        0.0527
     12 C         139.9322  145.1126  161.6011 C.ar    1  UNL1        0.0674
     13 N         139.8136  145.6172  160.1935 N.ar    1  UNL1       -0.2426
     14 C         140.9039  144.9843  159.3807 C.ar    1  UNL1        0.1105
     15 S         141.6964  144.0885  160.2860 S.2     1  UNL1       -0.0653
     16 C         141.0959  144.1678  161.6582 C.ar    1  UNL1        0.0620
     17 C         141.1572  145.2078  157.9192 C.ar    1  UNL1        0.0269
     18 C         140.3058  146.1737  157.1496 C.ar    1  UNL1        0.0227
     19 C         140.5591  146.3973  155.6882 C.ar    1  UNL1        0.0989
     20 N         141.6638  145.6550  154.9964 N.ar    1  UNL1       -0.2423
     21 C         142.5152  144.6891  155.7660 C.ar    1  UNL1        0.0989
     22 C         142.2619  144.4655  157.2274 C.ar    1  UNL1        0.0227
     23 C         142.6958  139.3358  168.2795 C.3     1  UNL1        0.0437
     24 C         142.4023  139.8762  169.6477 C.3     1  UNL1        0.0768
     25 N         141.7257  141.2063  169.7994 N.3     1  UNL1       -0.2737
     26 C         142.4110  142.5314  169.9556 C.3     1  UNL1        0.0721
     27 C         141.3539  143.5889  170.0743 C.3     1  UNL1        0.0187
     28 C         140.0151  142.9173  169.9915 C.3     1  UNL1        0.0174
     29 C         140.2450  141.4448  169.8217 C.3     1  UNL1        0.0576
     30 C         139.1808  140.3951  169.6960 C.3     1  UNL1        0.0173
@<TRIPOS>BOND
     1    11    12    1
     2    12    13   ar
     3    13    14   ar
     4    14    17    1
     5    17    18   ar
     6    18    19   ar
     7    19    20   ar
     8    20    21   ar
     9    21    22   ar
    10    14    15   ar
    11    15    16   ar
    12    16     1    1
    13     1     2   ar
    14     2     3   ar
    15     3     4   ar
    16     4     5   ar
    17     5     6   ar
    18     6    23    1
    19    23    24    1
    20    24    25    1
    21    25    26    1
    22    26    27    1
    23    27    28    1
    24    28    29    1
    25    29    30    1
    26     6     7   ar
    27     7     8   ar
    28     8     9   ar
    29     9    10   ar
    30    16    12   ar
    31    10     1   ar
    32    22    17   ar
    33     9     4   ar
    34    29    25    1
@<TRIPOS>MOLECULE
*****
 30 34 0 0 0
SMALL
GASTEIGER

@<TRIPOS>ATOM
      1 C         141.7037  138.5440  159.4233 C.ar    1  UNL1        0.0884
      2 C         140.2174  138.6300  159.2401 C.ar    1  UNL1        0.0197
      3 C         139.3042  138.4227  160.4118 C.ar    1  UNL1        0.0030
      4 C         139.8772  138.1294  161.7667 C.ar    1  UNL1        0.0174
      5 C         138.9638  137.9221  162.9384 C.ar    1  UNL1       -0.0027
      6 C         139.5368  137.6287  164.2933 C.ar    1  UNL1       -0.0207
      7 C         141.0231  137.5428  164.4764 C.ar    1  UNL1       -0.0027
      8 C         141.9364  137.7501  163.3047 C.ar    1  UNL1        0.0188
      9 C         141.3634  138.0434  161.9499 C.ar    1  UNL1        0.0812
     10 N         142.2767  138.2507  160.7782 N.ar    1  UNL1       -0.2448
     11 C         142.1188  136.4839  156.9266 C.3     1  UNL1        0.0527
     12 C         142.8078  137.8044  157.1040 C.ar    1  UNL1        0.0674
     13 N         143.8086  138.4098  156.1649 N.ar    1  UNL1       -0.2426
     14 C         144.2364  139.7309  156.7322 C.ar    1  UNL1        0.1105
     15 S         143.5000  139.9420  158.0218 S.2     1  UNL1       -0.0653
     16 C         142.6170  138.7513  158.2516 C.ar    1  UNL1        0.0620
     17 C         145.2268  140.6752  156.1177 C.ar    1  UNL1        0.0269
     18 C         145.8666  141.7415  156.9565 C.ar    1  UNL1        0.0227
     19 C         146.8569  142.6857  156.3420 C.ar    1  UNL1        0.0989
     20 N         147.2074  142.5637  154.8887 N.ar    1  UNL1       -0.2423
     21 C         146.5676  141.4973  154.0498 C.ar    1  UNL1        0.0989
     22 C         145.5773  140.5531  154.6643 C.ar    1  UNL1        0.0227
     23 C         138.6235  137.4214  165.4650 C.3     1  UNL1        0.0437
     24 C         138.1117  138.6025  166.2352 C.3     1  UNL1        0.0768
     25 N         138.9659  139.8261  166.3872 N.3     1  UNL1       -0.2737
     26 C         139.9874  140.0605  167.4603 C.3     1  UNL1        0.0721
     27 C         140.6014  141.4094  167.2291 C.3     1  UNL1        0.0187
     28 C         139.9593  142.0087  166.0131 C.3     1  UNL1        0.0174
     29 C         138.9485  141.0302  165.4928 C.3     1  UNL1        0.0576
     30 C         138.0739  141.2220  164.2894 C.3     1  UNL1        0.0173
@<TRIPOS>BOND
     1    11    12    1
     2    12    13   ar
     3    13    14   ar
     4    14    17    1
     5    17    18   ar
     6    18    19   ar
     7    19    20   ar
     8    20    21   ar
     9    21    22   ar
    10    14    15   ar
    11    15    16   ar
    12    16     1    1
    13     1     2   ar
    14     2     3   ar
    15     3     4   ar
    16     4     5   ar
    17     5     6   ar
    18     6    23    1
    19    23    24    1
    20    24    25    1
    21    25    26    1
    22    26    27    1
    23    27    28    1
    24    28    29    1
    25    29    30    1
    26     6     7   ar
    27     7     8   ar
    28     8     9   ar
    29     9    10   ar
    30    16    12   ar
    31    10     1   ar
    32    22    17   ar
    33     9     4   ar
    34    29    25    1
@<TRIPOS>MOLECULE
*****
 30 34 0 0 0
SMALL
GASTEIGER

@<TRIPOS>ATOM
      1 C         142.8529  140.3011  163.8455 C.ar    1  UNL1        0.0884
      2 C         143.8130  139.1723  163.6132 C.ar    1  UNL1        0.0197
      3 C         143.7752  138.4092  162.3224 C.ar    1  UNL1        0.0030
      4 C         142.7772  138.7748  161.2639 C.ar    1  UNL1        0.0174
      5 C         142.7394  138.0116  159.9731 C.ar    1  UNL1       -0.0027
      6 C         141.7415  138.3773  158.9146 C.ar    1  UNL1       -0.0207
      7 C         140.7813  139.5061  159.1469 C.ar    1  UNL1       -0.0027
      8 C         140.8191  140.2692  160.4377 C.ar    1  UNL1        0.0188
      9 C         141.8171  139.9036  161.4962 C.ar    1  UNL1        0.0812
     10 N         141.8549  140.6667  162.7870 N.ar    1  UNL1       -0.2448
     11 C         144.8233  142.8098  164.5338 C.3     1  UNL1        0.0527
     12 C         143.7963  142.2173  165.4526 C.ar    1  UNL1        0.0674
     13 N         143.4948  142.6740  166.8492 N.ar    1  UNL1       -0.2426
     14 C         142.4027  141.8031  167.3961 C.ar    1  UNL1        0.1105
     15 S         142.0293  140.8083  166.3374 S.2     1  UNL1       -0.0653
     16 C         142.8906  141.0642  165.1363 C.ar    1  UNL1        0.0620
     17 C         141.7914  141.9087  168.7618 C.ar    1  UNL1        0.0269
     18 C         142.1957  140.9483  169.8408 C.ar    1  UNL1        0.0227
     19 C         141.5844  141.0538  171.2064 C.ar    1  UNL1        0.0989
     20 N         140.5687  142.1197  171.4931 N.ar    1  UNL1       -0.2423
     21 C         140.1643  143.0801  170.4141 C.ar    1  UNL1        0.0989
     22 C         140.7756  142.9745  169.0485 C.ar    1  UNL1        0.0227
     23 C         141.7037  137.6142  157.6238 C.3     1  UNL1        0.0437
     24 C         142.9098  136.8456  157.1712 C.3     1  UNL1        0.0768
     25 N         142.7959  135.3808  156.8694 N.3     1  UNL1       -0.2737
     26 C         143.4880  134.2724  157.6060 C.3     1  UNL1        0.0721
     27 C         143.0898  132.9737  156.9698 C.3     1  UNL1        0.0187
     28 C         142.1516  133.2794  155.8400 C.3     1  UNL1        0.0174
     29 C         141.9700  134.7671  155.7780 C.3     1  UNL1        0.0576
     30 C         141.1130  135.5105  154.7968 C.3     1  UNL1        0.0173
@<TRIPOS>BOND
     1    11    12    1
     2    12    13   ar
     3    13    14   ar
     4    14    17    1
     5    17    18   ar
     6    18    19   ar
     7    19    20   ar
     8    20    21   ar
     9    21    22   ar
    10    14    15   ar
    11    15    16   ar
    12    16     1    1
    13     1     2   ar
    14     2     3   ar
    15     3     4   ar
    16     4     5   ar
    17     5     6   ar
    18     6    23    1
    19    23    24    1
    20    24    25    1
    21    25    26    1
    22    26    27    1
    23    27    28    1
    24    28    29    1
    25    29    30    1
    26     6     7   ar
    27     7     8   ar
    28     8     9   ar
    29     9    10   ar
    30    16    12   ar
    31    10     1   ar
    32    22    17   ar
    33     9     4   ar
    34    29    25    1
@<TRIPOS>MOLECULE
*****
 30 34 0 0 0
SMALL
GASTEIGER

@<TRIPOS>ATOM
      1 C         139.9576  138.9464  161.9953 C.ar    1  UNL1        0.0884
      2 C         139.2151  137.7723  162.5610 C.ar    1  UNL1        0.0197
      3 C         138.8915  137.7241  164.0248 C.ar    1  UNL1        0.0030
      4 C         139.3103  138.8501  164.9230 C.ar    1  UNL1        0.0174
      5 C         138.9866  138.8019  166.3869 C.ar    1  UNL1       -0.0027
      6 C         139.4054  139.9279  167.2851 C.ar    1  UNL1       -0.0207
      7 C         140.1480  141.1021  166.7194 C.ar    1  UNL1       -0.0027
      8 C         140.4716  141.1503  165.2555 C.ar    1  UNL1        0.0188
      9 C         140.0528  140.0243  164.3574 C.ar    1  UNL1        0.0812
     10 N         140.3765  140.0724  162.8935 N.ar    1  UNL1       -0.2448
     11 C         138.0295  140.1275  159.6422 C.3     1  UNL1        0.0527
     12 C         139.3951  139.5375  159.4499 C.ar    1  UNL1        0.0674
     13 N         140.1142  139.3868  158.1421 N.ar    1  UNL1       -0.2426
     14 C         141.4449  138.7508  158.4155 C.ar    1  UNL1        0.1105
     15 S         141.5482  138.5084  159.8921 S.2     1  UNL1       -0.0653
     16 C         140.2814  138.9946  160.5314 C.ar    1  UNL1        0.0620
     17 C         142.4890  138.4159  157.3919 C.ar    1  UNL1        0.0269
     18 C         143.2699  139.5127  156.7306 C.ar    1  UNL1        0.0227
     19 C         144.3140  139.1778  155.7070 C.ar    1  UNL1        0.0989
     20 N         144.5771  137.7462  155.3446 N.ar    1  UNL1       -0.2423
     21 C         143.7961  136.6495  156.0059 C.ar    1  UNL1        0.0989
     22 C         142.7521  136.9843  157.0295 C.ar    1  UNL1        0.0227
     23 C         139.0818  139.8798  168.7489 C.3     1  UNL1        0.0437
     24 C         139.4427  141.0349  169.6353 C.3     1  UNL1        0.0768
     25 N         140.8771  141.4487  169.7811 N.3     1  UNL1       -0.2737
     26 C         142.0607  140.5281  169.8207 C.3     1  UNL1        0.0721
     27 C         143.2948  141.3662  169.9770 C.3     1  UNL1        0.0187
     28 C         142.8739  142.8048  170.0340 C.3     1  UNL1        0.0174
     29 C         141.3797  142.8558  169.9130 C.3     1  UNL1        0.0576
     30 C         140.5362  144.0961  169.9221 C.3     1  UNL1        0.0173
@<TRIPOS>BOND
     1    11    12    1
     2    12    13   ar
     3    13    14   ar
     4    14    17    1
     5    17    18   ar
     6    18    19   ar
     7    19    20   ar
     8    20    21   ar
     9    21    22   ar
    10    14    15   ar
    11    15    16   ar
    12    16     1    1
    13     1     2   ar
    14     2     3   ar
    15     3     4   ar
    16     4     5   ar
    17     5     6   ar
    18     6    23    1
    19    23    24    1
    20    24    25    1
    21    25    26    1
    22    26    27    1
    23    27    28    1
    24    28    29    1
    25    29    30    1
    26     6     7   ar
    27     7     8   ar
    28     8     9   ar
    29     9    10   ar
    30    16    12   ar
    31    10     1   ar
    32    22    17   ar
    33     9     4   ar
    34    29    25    1
@<TRIPOS>MOLECULE
*****
 30 34 0 0 0
SMALL
GASTEIGER

@<TRIPOS>ATOM
      1 C         142.6327  138.2382  159.8172 C.ar    1  UNL1        0.0884
      2 C         143.8162  139.0812  160.1895 C.ar    1  UNL1        0.0197
      3 C         144.1312  139.3355  161.6338 C.ar    1  UNL1        0.0030
      4 C         143.2628  138.7466  162.7058 C.ar    1  UNL1        0.0174
      5 C         143.5779  139.0009  164.1502 C.ar    1  UNL1       -0.0027
      6 C         142.7095  138.4120  165.2221 C.ar    1  UNL1       -0.0207
      7 C         141.5260  137.5689  164.8497 C.ar    1  UNL1       -0.0027
      8 C         141.2110  137.3147  163.4054 C.ar    1  UNL1        0.0188
      9 C         142.0794  137.9035  162.3335 C.ar    1  UNL1        0.0812
     10 N         141.7643  137.6493  160.8892 N.ar    1  UNL1       -0.2448
     11 C         141.4005  140.4061  157.7121 C.3     1  UNL1        0.0527
     12 C         141.7513  138.9804  157.4052 C.ar    1  UNL1        0.0674
     13 N         141.5972  138.3008  156.0769 N.ar    1  UNL1       -0.2426
     14 C         142.0685  136.8843  156.2235 C.ar    1  UNL1        0.1105
     15 S         142.5137  136.6884  157.6424 S.2     1  UNL1       -0.0653
     16 C         142.3177  137.9839  158.3728 C.ar    1  UNL1        0.0620
     17 C         142.0905  135.8460  155.1412 C.ar    1  UNL1        0.0269
     18 C         142.4556  134.4285  155.4691 C.ar    1  UNL1        0.0227
     19 C         142.4776  133.3901  154.3868 C.ar    1  UNL1        0.0989
     20 N         142.1347  133.7693  152.9766 N.ar    1  UNL1       -0.2423
     21 C         141.7697  135.1868  152.6487 C.ar    1  UNL1        0.0989
     22 C         141.7476  136.2251  153.7310 C.ar    1  UNL1        0.0227
     23 C         143.0245  138.6663  166.6665 C.3     1  UNL1        0.0437
     24 C         142.6449  139.9728  167.2982 C.3     1  UNL1        0.0768
     25 N         141.5150  140.0294  168.2831 N.3     1  UNL1       -0.2737
     26 C         141.6438  139.9762  169.7767 C.3     1  UNL1        0.0721
     27 C         140.2663  140.0630  170.3641 C.3     1  UNL1        0.0187
     28 C         139.2862  140.1698  169.2335 C.3     1  UNL1        0.0174
     29 C         140.0580  140.1490  167.9474 C.3     1  UNL1        0.0576
     30 C         139.4750  140.2330  166.5679 C.3     1  UNL1        0.0173
@<TRIPOS>BOND
     1    11    12    1
     2    12    13   ar
     3    13    14   ar
     4    14    17    1
     5    17    18   ar
     6    18    19   ar
     7    19    20   ar
     8    20    21   ar
     9    21    22   ar
    10    14    15   ar
    11    15    16   ar
    12    16     1    1
    13     1     2   ar
    14     2     3   ar
    15     3     4   ar
    16     4     5   ar
    17     5     6   ar
    18     6    23    1
    19    23    24    1
    20    24    25    1
    21    25    26    1
    22    26    27    1
    23    27    28    1
    24    28    29    1
    25    29    30    1
    26     6     7   ar
    27     7     8   ar
    28     8     9   ar
    29     9    10   ar
    30    16    12   ar
    31    10     1   ar
    32    22    17   ar
    33     9     4   ar
    34    29    25    1
@<TRIPOS>MOLECULE
*****
 30 34 0 0 0
SMALL
GASTEIGER

@<TRIPOS>ATOM
      1 C         141.4229  139.1921  163.6248 C.ar    1  UNL1        0.0884
      2 C         142.7313  138.5067  163.3636 C.ar    1  UNL1        0.0197
      3 C         143.0833  138.0672  161.9733 C.ar    1  UNL1        0.0030
      4 C         142.1269  138.3131  160.8442 C.ar    1  UNL1        0.0174
      5 C         142.4789  137.8736  159.4539 C.ar    1  UNL1       -0.0027
      6 C         141.5226  138.1196  158.3248 C.ar    1  UNL1       -0.0207
      7 C         140.2141  138.8050  158.5860 C.ar    1  UNL1       -0.0027
      8 C         139.8621  139.2445  159.9763 C.ar    1  UNL1        0.0188
      9 C         140.8185  138.9986  161.1054 C.ar    1  UNL1        0.0812
     10 N         140.4665  139.4381  162.4957 N.ar    1  UNL1       -0.2448
     11 C         138.9108  138.1054  165.4019 C.3     1  UNL1        0.0527
     12 C         139.9161  139.1321  165.8319 C.ar    1  UNL1        0.0674
     13 N         139.9434  139.8396  167.1543 N.ar    1  UNL1       -0.2426
     14 C         141.1149  140.7764  167.1548 C.ar    1  UNL1        0.1105
     15 S         141.8117  140.6479  165.8327 S.2     1  UNL1       -0.0653
     16 C         141.0708  139.6316  165.0151 C.ar    1  UNL1        0.0620
     17 C         141.5187  141.6826  168.2798 C.ar    1  UNL1        0.0269
     18 C         140.5317  142.6593  168.8473 C.ar    1  UNL1        0.0227
     19 C         140.9355  143.5655  169.9724 C.ar    1  UNL1        0.0989
     20 N         142.3263  143.4951  170.5298 N.ar    1  UNL1       -0.2423
     21 C         143.3133  142.5184  169.9623 C.ar    1  UNL1        0.0989
     22 C         142.9095  141.6122  168.8373 C.ar    1  UNL1        0.0227
     23 C         141.8746  137.6801  156.9345 C.3     1  UNL1        0.0437
     24 C         143.0953  136.8406  156.6998 C.3     1  UNL1        0.0768
     25 N         142.9850  135.5529  155.9385 N.3     1  UNL1       -0.2737
     26 C         142.5652  135.4089  154.5056 C.3     1  UNL1        0.0721
     27 C         142.5958  133.9501  154.1579 C.3     1  UNL1        0.0187
     28 C         143.0345  133.1924  155.3760 C.3     1  UNL1        0.0174
     29 C         143.2750  134.1830  156.4764 C.3     1  UNL1        0.0576
     30 C         143.7263  133.8603  157.8700 C.3     1  UNL1        0.0173
@<TRIPOS>BOND
     1    11    12    1
     2    12    13   ar
     3    13    14   ar
     4    14    17    1
     5    17    18   ar
     6    18    19   ar
     7    19    20   ar
     8    20    21   ar
     9    21    22   ar
    10    14    15   ar
    11    15    16   ar
    12    16     1    1
    13     1     2   ar
    14     2     3   ar
    15     3     4   ar
    16     4     5   ar
    17     5     6   ar
    18     6    23    1
    19    23    24    1
    20    24    25    1
    21    25    26    1
    22    26    27    1
    23    27    28    1
    24    28    29    1
    25    29    30    1
    26     6     7   ar
    27     7     8   ar
    28     8     9   ar
    29     9    10   ar
    30    16    12   ar
    31    10     1   ar
    32    22    17   ar
    33     9     4   ar
    34    29    25    1
@<TRIPOS>MOLECULE
*****
 30 34 0 0 0
SMALL
GASTEIGER

@<TRIPOS>ATOM
      1 C         140.2637  144.0298  159.9295 C.ar    1  UNL1        0.0884
      2 C         141.6582  143.6740  160.3523 C.ar    1  UNL1        0.0197
      3 C         141.9486  143.3588  161.7898 C.ar    1  UNL1        0.0030
      4 C         140.8445  143.3994  162.8044 C.ar    1  UNL1        0.0174
      5 C         141.1350  143.0843  164.2419 C.ar    1  UNL1       -0.0027
      6 C         140.0310  143.1249  165.2565 C.ar    1  UNL1       -0.0207
      7 C         138.6365  143.4806  164.8336 C.ar    1  UNL1       -0.0027
      8 C         138.3460  143.7958  163.3962 C.ar    1  UNL1        0.0188
      9 C         139.4501  143.7552  162.3815 C.ar    1  UNL1        0.0812
     10 N         139.1596  144.0704  160.9441 N.ar    1  UNL1       -0.2448
     11 C         138.6745  142.1053  157.8269 C.3     1  UNL1        0.0527
     12 C         139.2428  143.4604  157.5256 C.ar    1  UNL1        0.0674
     13 N         139.1803  144.1688  156.2049 N.ar    1  UNL1       -0.2426
     14 C         139.8722  145.4913  156.3551 C.ar    1  UNL1        0.1105
     15 S         140.3622  145.6001  157.7686 S.2     1  UNL1       -0.0653
     16 C         139.9732  144.3450  158.4920 C.ar    1  UNL1        0.0620
     17 C         140.0438  146.5235  155.2804 C.ar    1  UNL1        0.0269
     18 C         139.3564  147.8515  155.3993 C.ar    1  UNL1        0.0227
     19 C         139.5281  148.8838  154.3247 C.ar    1  UNL1        0.0989
     20 N         140.3871  148.5881  153.1311 N.ar    1  UNL1       -0.2423
     21 C         141.0746  147.2602  153.0122 C.ar    1  UNL1        0.0989
     22 C         140.9029  146.2279  154.0869 C.ar    1  UNL1        0.0227
     23 C         140.3214  142.8097  166.6939 C.3     1  UNL1        0.0437
     24 C         140.1770  141.4041  167.1976 C.3     1  UNL1        0.0768
     25 N         139.8766  140.2908  166.2383 N.3     1  UNL1       -0.2737
     26 C         138.5115  139.8412  165.8089 C.3     1  UNL1        0.0721
     27 C         138.6798  138.7041  164.8452 C.3     1  UNL1        0.0187
     28 C         140.1490  138.4511  164.6789 C.3     1  UNL1        0.0174
     29 C         140.8886  139.4317  165.5399 C.3     1  UNL1        0.0576
     30 C         142.3786  139.5350  165.6782 C.3     1  UNL1        0.0173
@<TRIPOS>BOND
     1    11    12    1
     2    12    13   ar
     3    13    14   ar
     4    14    17    1
     5    17    18   ar
     6    18    19   ar
     7    19    20   ar
     8    20    21   ar
     9    21    22   ar
    10    14    15   ar
    11    15    16   ar
    12    16     1    1
    13     1     2   ar
    14     2     3   ar
    15     3     4   ar
    16     4     5   ar
    17     5     6   ar
    18     6    23    1
    19    23    24    1
    20    24    25    1
    21    25    26    1
    22    26    27    1
    23    27    28    1
    24    28    29    1
    25    29    30    1
    26     6     7   ar
    27     7     8   ar
    28     8     9   ar
    29     9    10   ar
    30    16    12   ar
    31    10     1   ar
    32    22    17   ar
    33     9     4   ar
    34    29    25    1
@<TRIPOS>MOLECULE
*****
 30 34 0 0 0
SMALL
GASTEIGER

@<TRIPOS>ATOM
      1 C         140.3545  140.6740  163.4074 C.ar    1  UNL1        0.0884
      2 C         139.0640  140.3184  162.7305 C.ar    1  UNL1        0.0197
      3 C         139.0808  139.6423  161.3917 C.ar    1  UNL1        0.0030
      4 C         140.3881  139.3218  160.7296 C.ar    1  UNL1        0.0174
      5 C         140.4049  138.6457  159.3907 C.ar    1  UNL1       -0.0027
      6 C         141.7122  138.3253  158.7287 C.ar    1  UNL1       -0.0207
      7 C         143.0027  138.6809  159.4056 C.ar    1  UNL1       -0.0027
      8 C         142.9859  139.3570  160.7444 C.ar    1  UNL1        0.0188
      9 C         141.6786  139.6775  161.4065 C.ar    1  UNL1        0.0812
     10 N         141.6618  140.3535  162.7453 N.ar    1  UNL1       -0.2448
     11 C         140.0196  143.8771  163.9349 C.3     1  UNL1        0.0527
     12 C         140.1838  142.8224  164.9887 C.ar    1  UNL1        0.0674
     13 N         140.2229  143.0548  166.4701 N.ar    1  UNL1       -0.2426
     14 C         140.4010  141.7261  167.1432 C.ar    1  UNL1        0.1105
     15 S         140.4720  140.6726  166.0778 S.2     1  UNL1       -0.0653
     16 C         140.3378  141.3501  164.7463 C.ar    1  UNL1        0.0620
     17 C         140.4922  141.4922  168.6220 C.ar    1  UNL1        0.0269
     18 C         141.1585  142.5075  169.5024 C.ar    1  UNL1        0.0227
     19 C         141.2497  142.2736  170.9812 C.ar    1  UNL1        0.0989
     20 N         140.6744  141.0242  171.5797 N.ar    1  UNL1       -0.2423
     21 C         140.0081  140.0088  170.6993 C.ar    1  UNL1        0.0989
     22 C         139.9169  140.2428  169.2205 C.ar    1  UNL1        0.0227
     23 C         141.7290  137.6492  157.3898 C.3     1  UNL1        0.0437
     24 C         142.9233  136.8440  156.9711 C.3     1  UNL1        0.0768
     25 N         142.7967  135.3628  156.7712 N.3     1  UNL1       -0.2737
     26 C         143.4901  134.3023  157.5740 C.3     1  UNL1        0.0721
     27 C         143.0763  132.9661  157.0323 C.3     1  UNL1        0.0187
     28 C         142.1271  133.2009  155.8948 C.3     1  UNL1        0.0174
     29 C         141.9543  134.6821  155.7334 C.3     1  UNL1        0.0576
     30 C         141.0907  135.3630  154.7133 C.3     1  UNL1        0.0173
@<TRIPOS>BOND
     1    11    12    1
     2    12    13   ar
     3    13    14   ar
     4    14    17    1
     5    17    18   ar
     6    18    19   ar
     7    19    20   ar
     8    20    21   ar
     9    21    22   ar
    10    14    15   ar
    11    15    16   ar
    12    16     1    1
    13     1     2   ar
    14     2     3   ar
    15     3     4   ar
    16     4     5   ar
    17     5     6   ar
    18     6    23    1
    19    23    24    1
    20    24    25    1
    21    25    26    1
    22    26    27    1
    23    27    28    1
    24    28    29    1
    25    29    30    1
    26     6     7   ar
    27     7     8   ar
    28     8     9   ar
    29     9    10   ar
    30    16    12   ar
    31    10     1   ar
    32    22    17   ar
    33     9     4   ar
    34    29    25    1
@<TRIPOS>MOLECULE
*****
 30 34 0 0 0
SMALL
GASTEIGER

@<TRIPOS>ATOM
      1 C         139.4695  140.3419  158.6837 C.ar    1  UNL1        0.0884
      2 C         139.9090  141.7617  158.4817 C.ar    1  UNL1        0.0197
      3 C         139.6266  142.7913  159.5354 C.ar    1  UNL1        0.0030
      4 C         138.9048  142.4010  160.7910 C.ar    1  UNL1        0.0174
      5 C         138.6224  143.4307  161.8447 C.ar    1  UNL1       -0.0027
      6 C         137.9005  143.0404  163.1003 C.ar    1  UNL1       -0.0207
      7 C         137.4610  141.6204  163.3022 C.ar    1  UNL1       -0.0027
      8 C         137.7434  140.5909  162.2486 C.ar    1  UNL1        0.0188
      9 C         138.4653  140.9812  160.9930 C.ar    1  UNL1        0.0812
     10 N         138.7476  139.9516  159.9393 N.ar    1  UNL1       -0.2448
     11 C         138.0164  140.1312  155.7692 C.3     1  UNL1        0.0527
     12 C         139.0840  139.2154  156.2904 C.ar    1  UNL1        0.0674
     13 N         139.6710  138.0420  155.5635 N.ar    1  UNL1       -0.2426
     14 C         140.7018  137.4136  156.4538 C.ar    1  UNL1        0.1105
     15 S         140.7518  138.1986  157.7310 S.2     1  UNL1       -0.0653
     16 C         139.7519  139.3122  157.6300 C.ar    1  UNL1        0.0620
     17 C         141.5361  136.2112  156.1248 C.ar    1  UNL1        0.0269
     18 C         142.8358  135.9822  156.8378 C.ar    1  UNL1        0.0227
     19 C         143.6701  134.7799  156.5088 C.ar    1  UNL1        0.0989
     20 N         143.2047  133.8066  155.4666 N.ar    1  UNL1       -0.2423
     21 C         141.9050  134.0356  154.7536 C.ar    1  UNL1        0.0989
     22 C         141.0707  135.2379  155.0826 C.ar    1  UNL1        0.0227
     23 C         137.6181  144.0699  164.1539 C.3     1  UNL1        0.0437
     24 C         138.7497  144.6906  164.9184 C.3     1  UNL1        0.0768
     25 N         140.0295  143.9325  165.1113 N.3     1  UNL1       -0.2737
     26 C         140.2443  142.7925  166.0622 C.3     1  UNL1        0.0721
     27 C         141.6668  142.3366  165.9257 C.3     1  UNL1        0.0187
     28 C         142.3312  143.1949  164.8904 C.3     1  UNL1        0.0174
     29 C         141.3193  144.1812  164.3870 C.3     1  UNL1        0.0576
     30 C         141.5557  145.2317  163.3428 C.3     1  UNL1        0.0173
@<TRIPOS>BOND
     1    11    12    1
     2    12    13   ar
     3    13    14   ar
     4    14    17    1
     5    17    18   ar
     6    18    19   ar
     7    19    20   ar
     8    20    21   ar
     9    21    22   ar
    10    14    15   ar
    11    15    16   ar
    12    16     1    1
    13     1     2   ar
    14     2     3   ar
    15     3     4   ar
    16     4     5   ar
    17     5     6   ar
    18     6    23    1
    19    23    24    1
    20    24    25    1
    21    25    26    1
    22    26    27    1
    23    27    28    1
    24    28    29    1
    25    29    30    1
    26     6     7   ar
    27     7     8   ar
    28     8     9   ar
    29     9    10   ar
    30    16    12   ar
    31    10     1   ar
    32    22    17   ar
    33     9     4   ar
    34    29    25    1
