@<TRIPOS>MOLECULE
*****
 39 42 0 0 0
SMALL
GASTEIGER

@<TRIPOS>ATOM
      1 N         146.2948  141.2778  155.3318 N.3     1  UNL1       -0.1584
      2 C         145.6985  139.9909  154.8432 C.3     1  UNL1        0.1050
      3 C         144.6675  139.5501  155.8396 C.3     1  UNL1        0.1045
      4 C         144.6265  140.5644  156.9439 C.3     1  UNL1        0.1045
      5 C         145.6322  141.6322  156.6301 C.3     1  UNL1        0.1050
      6 C         143.8253  138.3122  155.7477 C.2     1  UNL1        0.2286
      7 O         142.3382  138.4022  155.9221 O.2     1  UNL1       -0.2747
      8 N         144.4702  136.9844  155.4815 N.am    1  UNL1       -0.2693
      9 H         145.4463  136.9253  155.3670 H       1  UNL1        0.1563
     10 C         143.6281  135.7464  155.3896 C.ar    1  UNL1        0.1342
     11 C         142.7714  135.5102  154.1812 C.ar    1  UNL1        0.0354
     12 C         141.9292  134.2723  154.0894 C.ar    1  UNL1        0.0158
     13 C         141.9438  133.2707  155.2059 C.ar    1  UNL1        0.0769
     14 CL        141.1016  132.0328  155.1141 Cl      1  UNL1       -0.0806
     15 C         142.8005  133.5070  156.4143 C.ar    1  UNL1        0.1116
     16 N         143.6426  134.7449  156.5061 N.ar    1  UNL1       -0.2281
     17 C         143.7361  140.5189  158.1501 C.2     1  UNL1        0.2276
     18 O         143.0848  141.7745  158.6494 O.2     1  UNL1       -0.2747
     19 N         143.4970  139.2178  158.8572 N.am    1  UNL1       -0.2821
     20 H         143.9245  138.3937  158.5295 H       1  UNL1        0.1549
     21 C         142.6067  139.1722  160.0635 C.ar    1  UNL1        0.0782
     22 C         141.1635  138.7906  159.9165 C.ar    1  UNL1        0.0184
     23 C         140.2731  138.7449  161.1227 C.ar    1  UNL1        0.0190
     24 C         140.8259  139.0810  162.4760 C.ar    1  UNL1        0.0692
     25 C         142.2691  139.4626  162.6231 C.ar    1  UNL1        0.0485
     26 C         143.1595  139.5082  161.4168 C.ar    1  UNL1        0.1549
     27 F         144.6026  139.8899  161.5639 F       1  UNL1       -0.2028
     28 N         139.9356  139.0354  163.6823 N.ar    1  UNL1       -0.2731
     29 C         139.6255  137.7216  164.3364 C.ar    1  UNL1        0.0829
     30 C         138.7351  137.6759  165.5427 C.ar    1  UNL1        0.0192
     31 C         138.1548  138.9441  166.0950 C.ar    1  UNL1        0.0064
     32 C         138.4649  140.2579  165.4409 C.ar    1  UNL1        0.0611
     33 C         139.3552  140.3036  164.2346 C.ar    1  UNL1        0.2648
     34 O         139.6653  141.6173  163.5806 O.2     1  UNL1       -0.2666
     35 S         147.3655  142.0709  154.6430 S.O2    1  UNL1        0.0438
     36 O         146.4011  142.4233  153.5496 O.2     1  UNL1       -0.1573
     37 O         148.3299  141.7185  155.7365 O.2     1  UNL1       -0.1573
     38 C         148.0888  144.1456  153.2566 C.3     1  UNL1        0.0289
     39 C         148.4363  142.8640  153.9542 C.3     1  UNL1        0.1692
@<TRIPOS>BOND
     1    38    39    1
     2    39    35    1
     3    35    36    2
     4    35    37    2
     5    35     1    1
     6     1     2    1
     7     2     3    1
     8     3     6    1
     9     6     7    2
    10     6     8   am
    11     8    10    1
    12    10    11   ar
    13    11    12   ar
    14    12    13   ar
    15    13    14    1
    16    13    15   ar
    17    15    16   ar
    18     3     4    1
    19     4    17    1
    20    17    18    2
    21    17    19   am
    22    19    21    1
    23    21    22   ar
    24    22    23   ar
    25    23    24   ar
    26    24    28    1
    27    28    29   ar
    28    29    30   ar
    29    30    31   ar
    30    31    32   ar
    31    32    33   ar
    32    33    34    2
    33    24    25   ar
    34    25    26   ar
    35    26    27    1
    36     4     5    1
    37     5     1    1
    38    16    10   ar
    39    26    21   ar
    40    33    28   ar
    41     8     9    1
    42    19    20    1
@<TRIPOS>MOLECULE
*****
 39 42 0 0 0
SMALL
GASTEIGER

@<TRIPOS>ATOM
      1 N         143.4289  135.1991  156.1377 N.3     1  UNL1       -0.1584
      2 C         144.0109  136.2959  155.2959 C.3     1  UNL1        0.1050
      3 C         143.7863  137.5962  156.0091 C.3     1  UNL1        0.1045
      4 C         143.0656  137.3032  157.2915 C.3     1  UNL1        0.1045
      5 C         142.8447  135.8217  157.3711 C.3     1  UNL1        0.1050
      6 C         144.2084  138.9517  155.5247 C.2     1  UNL1        0.2286
      7 O         143.1943  139.8871  154.9359 O.2     1  UNL1       -0.2747
      8 N         145.6445  139.3718  155.6291 N.am    1  UNL1       -0.2693
      9 H         146.3101  138.7579  156.0156 H       1  UNL1        0.1563
     10 C         146.0666  140.7273  155.1447 C.ar    1  UNL1        0.1342
     11 C         146.6147  141.7328  156.1135 C.ar    1  UNL1        0.0354
     12 C         147.0368  143.0882  155.6291 C.ar    1  UNL1        0.0158
     13 C         146.9108  143.4381  154.1759 C.ar    1  UNL1        0.0769
     14 CL        147.3329  144.7936  153.6915 Cl      1  UNL1       -0.0806
     15 C         146.3627  142.4326  153.2071 C.ar    1  UNL1        0.1116
     16 N         145.9407  141.0772  153.6915 N.ar    1  UNL1       -0.2281
     17 C         142.6405  138.3143  158.3148 C.2     1  UNL1        0.2276
     18 O         143.6678  139.1661  158.9995 O.2     1  UNL1       -0.2747
     19 N         141.1878  138.4735  158.6534 N.am    1  UNL1       -0.2821
     20 H         140.5135  137.9144  158.2040 H       1  UNL1        0.1549
     21 C         140.7626  139.4845  159.6766 C.ar    1  UNL1        0.0782
     22 C         140.4287  140.8845  159.2540 C.ar    1  UNL1        0.0184
     23 C         140.0035  141.8956  160.2771 C.ar    1  UNL1        0.0190
     24 C         139.9121  141.5066  161.7230 C.ar    1  UNL1        0.0692
     25 C         140.2460  140.1066  162.1455 C.ar    1  UNL1        0.0485
     26 C         140.6712  139.0956  161.1224 C.ar    1  UNL1        0.1549
     27 F         141.0051  137.6956  161.5450 F       1  UNL1       -0.2028
     28 N         139.4869  142.5176  162.7462 N.ar    1  UNL1       -0.2731
     29 C         140.4871  143.4862  163.3043 C.ar    1  UNL1        0.0829
     30 C         140.0620  144.4973  164.3276 C.ar    1  UNL1        0.0192
     31 C         138.6365  144.5397  164.7927 C.ar    1  UNL1        0.0064
     32 C         137.6363  143.5712  164.2346 C.ar    1  UNL1        0.0611
     33 C         138.0615  142.5602  163.2114 C.ar    1  UNL1        0.2648
     34 O         137.0612  141.5916  162.6533 O.2     1  UNL1       -0.2666
     35 S         143.4308  133.7365  155.8047 S.O2    1  UNL1        0.0438
     36 O         144.1949  133.4509  157.0635 O.2     1  UNL1       -0.1573
     37 O         142.6667  134.0222  154.5459 O.2     1  UNL1       -0.1573
     38 C         144.6036  131.4188  155.8559 C.3     1  UNL1        0.0289
     39 C         143.4327  132.2740  155.4716 C.3     1  UNL1        0.1692
@<TRIPOS>BOND
     1    38    39    1
     2    39    35    1
     3    35    36    2
     4    35    37    2
     5    35     1    1
     6     1     2    1
     7     2     3    1
     8     3     6    1
     9     6     7    2
    10     6     8   am
    11     8    10    1
    12    10    11   ar
    13    11    12   ar
    14    12    13   ar
    15    13    14    1
    16    13    15   ar
    17    15    16   ar
    18     3     4    1
    19     4    17    1
    20    17    18    2
    21    17    19   am
    22    19    21    1
    23    21    22   ar
    24    22    23   ar
    25    23    24   ar
    26    24    28    1
    27    28    29   ar
    28    29    30   ar
    29    30    31   ar
    30    31    32   ar
    31    32    33   ar
    32    33    34    2
    33    24    25   ar
    34    25    26   ar
    35    26    27    1
    36     4     5    1
    37     5     1    1
    38    16    10   ar
    39    26    21   ar
    40    33    28   ar
    41     8     9    1
    42    19    20    1
@<TRIPOS>MOLECULE
*****
 39 42 0 0 0
SMALL
GASTEIGER

@<TRIPOS>ATOM
      1 N         142.7852  133.7260  156.2129 N.3     1  UNL1       -0.1584
      2 C         141.7325  134.4475  155.4246 C.3     1  UNL1        0.1050
      3 C         141.6215  135.8416  155.9668 C.3     1  UNL1        0.1045
      4 C         142.6055  135.9819  157.0902 C.3     1  UNL1        0.1045
      5 C         143.3248  134.6744  157.2423 C.3     1  UNL1        0.1050
      6 C         140.6899  136.9083  155.4723 C.2     1  UNL1        0.2286
      7 O         141.2313  138.0858  154.7171 O.2     1  UNL1       -0.2747
      8 N         139.2169  136.7974  155.7330 N.am    1  UNL1       -0.2693
      9 H         138.8615  136.0245  156.2287 H       1  UNL1        0.1563
     10 C         138.2853  137.8640  155.2385 C.ar    1  UNL1        0.1342
     11 C         137.4246  137.6099  154.0367 C.ar    1  UNL1        0.0354
     12 C         136.4930  138.6765  153.5423 C.ar    1  UNL1        0.0158
     13 C         136.4222  139.9973  154.2497 C.ar    1  UNL1        0.0769
     14 CL        135.4906  141.0639  153.7552 Cl      1  UNL1       -0.0806
     15 C         137.2829  140.2515  155.4516 C.ar    1  UNL1        0.1116
     16 N         138.2145  139.1848  155.9460 N.ar    1  UNL1       -0.2281
     17 C         142.8307  137.2135  157.9163 C.2     1  UNL1        0.2276
     18 O         143.3940  138.4501  157.2811 O.2     1  UNL1       -0.2747
     19 N         142.4926  137.2084  159.3777 N.am    1  UNL1       -0.2821
     20 H         142.1229  136.3968  159.7946 H       1  UNL1        0.1549
     21 C         142.7177  138.4400  160.2039 C.ar    1  UNL1        0.0782
     22 C         144.0757  138.7218  160.7753 C.ar    1  UNL1        0.0184
     23 C         144.3009  139.9533  161.6016 C.ar    1  UNL1        0.0190
     24 C         143.1681  140.9029  161.8563 C.ar    1  UNL1        0.0692
     25 C         141.8102  140.6211  161.2849 C.ar    1  UNL1        0.0485
     26 C         141.5850  139.3896  160.4587 C.ar    1  UNL1        0.1549
     27 F         140.2270  139.1078  159.8873 F       1  UNL1       -0.2028
     28 N         143.3933  142.1345  162.6826 N.ar    1  UNL1       -0.2731
     29 C         143.4441  142.0351  164.1784 C.ar    1  UNL1        0.0829
     30 C         143.6693  143.2666  165.0048 C.ar    1  UNL1        0.0192
     31 C         143.8436  144.5975  164.3351 C.ar    1  UNL1        0.0064
     32 C         143.7929  144.6969  162.8393 C.ar    1  UNL1        0.0611
     33 C         143.5677  143.4654  162.0130 C.ar    1  UNL1        0.2648
     34 O         143.5169  143.5648  160.5172 O.2     1  UNL1       -0.2666
     35 S         143.2218  132.3057  156.0079 S.O2    1  UNL1        0.0438
     36 O         141.8024  131.9099  155.7276 O.2     1  UNL1       -0.1573
     37 O         144.6412  132.7015  156.2882 O.2     1  UNL1       -0.1573
     38 C         143.9490  130.0117  156.9871 C.3     1  UNL1        0.0289
     39 C         143.6583  130.8854  155.8029 C.3     1  UNL1        0.1692
@<TRIPOS>BOND
     1    38    39    1
     2    39    35    1
     3    35    36    2
     4    35    37    2
     5    35     1    1
     6     1     2    1
     7     2     3    1
     8     3     6    1
     9     6     7    2
    10     6     8   am
    11     8    10    1
    12    10    11   ar
    13    11    12   ar
    14    12    13   ar
    15    13    14    1
    16    13    15   ar
    17    15    16   ar
    18     3     4    1
    19     4    17    1
    20    17    18    2
    21    17    19   am
    22    19    21    1
    23    21    22   ar
    24    22    23   ar
    25    23    24   ar
    26    24    28    1
    27    28    29   ar
    28    29    30   ar
    29    30    31   ar
    30    31    32   ar
    31    32    33   ar
    32    33    34    2
    33    24    25   ar
    34    25    26   ar
    35    26    27    1
    36     4     5    1
    37     5     1    1
    38    16    10   ar
    39    26    21   ar
    40    33    28   ar
    41     8     9    1
    42    19    20    1
@<TRIPOS>MOLECULE
*****
 39 42 0 0 0
SMALL
GASTEIGER

@<TRIPOS>ATOM
      1 N         139.8304  146.2651  156.3873 N.3     1  UNL1       -0.1584
      2 C         140.0699  144.8780  155.8690 C.3     1  UNL1        0.1050
      3 C         140.2730  143.9717  157.0469 C.3     1  UNL1        0.1045
      4 C         140.1591  144.7986  158.2932 C.3     1  UNL1        0.1045
      5 C         139.8856  146.2160  157.8856 C.3     1  UNL1        0.1050
      6 C         140.5427  142.4972  156.9887 C.2     1  UNL1        0.2286
      7 O         139.4863  141.5611  156.4811 O.2     1  UNL1       -0.2747
      8 N         141.8687  141.9590  157.4380 N.am    1  UNL1       -0.2693
      9 H         142.5621  142.5735  157.7712 H       1  UNL1        0.1563
     10 C         142.1384  140.4846  157.3798 C.ar    1  UNL1        0.1342
     11 C         141.6369  139.5867  158.4716 C.ar    1  UNL1        0.0354
     12 C         141.9066  138.1123  158.4133 C.ar    1  UNL1        0.0158
     13 C         142.6779  137.5358  157.2632 C.ar    1  UNL1        0.0769
     14 CL        142.9476  136.0614  157.2050 Cl      1  UNL1       -0.0806
     15 C         143.1794  138.4337  156.1714 C.ar    1  UNL1        0.1116
     16 N         142.9097  139.9081  156.2297 N.ar    1  UNL1       -0.2281
     17 C         140.2949  144.2963  159.7000 C.2     1  UNL1        0.2276
     18 O         141.5549  144.5568  160.4711 O.2     1  UNL1       -0.2747
     19 N         139.1706  143.5335  160.3358 N.am    1  UNL1       -0.2821
     20 H         138.3437  143.3625  159.8297 H       1  UNL1        0.1549
     21 C         139.3063  143.0311  161.7426 C.ar    1  UNL1        0.0782
     22 C         140.1942  141.8588  162.0380 C.ar    1  UNL1        0.0184
     23 C         140.3299  141.3563  163.4448 C.ar    1  UNL1        0.0190
     24 C         139.5778  142.0263  164.5562 C.ar    1  UNL1        0.0692
     25 C         138.6899  143.1987  164.2609 C.ar    1  UNL1        0.0485
     26 C         138.5542  143.7011  162.8541 C.ar    1  UNL1        0.1549
     27 F         137.6663  144.8735  162.5587 F       1  UNL1       -0.2028
     28 N         139.7135  141.5240  165.9631 N.ar    1  UNL1       -0.2731
     29 C         140.5330  142.2915  166.9577 C.ar    1  UNL1        0.0829
     30 C         140.6687  141.7892  168.3647 C.ar    1  UNL1        0.0192
     31 C         139.9849  140.5193  168.7768 C.ar    1  UNL1        0.0064
     32 C         139.1655  139.7518  167.7822 C.ar    1  UNL1        0.0611
     33 C         139.0297  140.2541  166.3753 C.ar    1  UNL1        0.2648
     34 O         138.2102  139.4866  165.3807 O.2     1  UNL1       -0.2666
     35 S         139.5798  147.4868  155.5538 S.O2    1  UNL1        0.0438
     36 O         138.7810  148.0864  156.6729 O.2     1  UNL1       -0.1573
     37 O         140.3787  146.8871  154.4348 O.2     1  UNL1       -0.1573
     38 C         138.7830  149.9518  155.3573 C.3     1  UNL1        0.0289
     39 C         139.3292  148.7084  154.7203 C.3     1  UNL1        0.1692
@<TRIPOS>BOND
     1    38    39    1
     2    39    35    1
     3    35    36    2
     4    35    37    2
     5    35     1    1
     6     1     2    1
     7     2     3    1
     8     3     6    1
     9     6     7    2
    10     6     8   am
    11     8    10    1
    12    10    11   ar
    13    11    12   ar
    14    12    13   ar
    15    13    14    1
    16    13    15   ar
    17    15    16   ar
    18     3     4    1
    19     4    17    1
    20    17    18    2
    21    17    19   am
    22    19    21    1
    23    21    22   ar
    24    22    23   ar
    25    23    24   ar
    26    24    28    1
    27    28    29   ar
    28    29    30   ar
    29    30    31   ar
    30    31    32   ar
    31    32    33   ar
    32    33    34    2
    33    24    25   ar
    34    25    26   ar
    35    26    27    1
    36     4     5    1
    37     5     1    1
    38    16    10   ar
    39    26    21   ar
    40    33    28   ar
    41     8     9    1
    42    19    20    1
@<TRIPOS>MOLECULE
*****
 39 42 0 0 0
SMALL
GASTEIGER

@<TRIPOS>ATOM
      1 N         141.5290  138.2418  157.1386 N.3     1  UNL1       -0.1584
      2 C         141.1618  138.6111  158.5454 C.3     1  UNL1        0.1050
      3 C         140.9192  140.0908  158.5878 C.3     1  UNL1        0.1045
      4 C         141.1365  140.6359  157.2073 C.3     1  UNL1        0.1045
      5 C         141.5133  139.4932  156.3117 C.3     1  UNL1        0.1050
      6 C         140.5280  140.8857  159.7982 C.2     1  UNL1        0.2286
      7 O         141.5759  141.3268  160.7766 O.2     1  UNL1       -0.2747
      8 N         139.0890  141.2395  160.0302 N.am    1  UNL1       -0.2693
      9 H         138.4012  140.9501  159.3880 H       1  UNL1        0.1563
     10 C         138.6978  142.0345  161.2407 C.ar    1  UNL1        0.1342
     11 C         138.0625  141.3498  162.4144 C.ar    1  UNL1        0.0354
     12 C         137.6714  142.1448  163.6248 C.ar    1  UNL1        0.0158
     13 C         137.9155  143.6243  163.6614 C.ar    1  UNL1        0.0769
     14 CL        137.5243  144.4192  164.8719 Cl      1  UNL1       -0.0806
     15 C         138.5507  144.3089  162.4877 C.ar    1  UNL1        0.1116
     16 N         138.9418  143.5140  161.2773 N.ar    1  UNL1       -0.2281
     17 C         141.0007  142.0717  156.7950 C.2     1  UNL1        0.2276
     18 O         142.1503  142.7748  156.1362 O.2     1  UNL1       -0.2747
     19 N         139.7153  142.8045  157.0415 N.am    1  UNL1       -0.2821
     20 H         138.9607  142.3430  157.4739 H       1  UNL1        0.1549
     21 C         139.5794  144.2403  156.6292 C.ar    1  UNL1        0.0782
     22 C         138.6244  144.6197  155.5365 C.ar    1  UNL1        0.0184
     23 C         138.4885  146.0554  155.1241 C.ar    1  UNL1        0.0190
     24 C         139.3077  147.1119  155.8045 C.ar    1  UNL1        0.0692
     25 C         140.2626  146.7325  156.8973 C.ar    1  UNL1        0.0485
     26 C         140.3986  145.2967  157.3096 C.ar    1  UNL1        0.1549
     27 F         141.3535  144.9174  158.4024 F       1  UNL1       -0.2028
     28 N         139.1718  148.5477  155.3923 N.ar    1  UNL1       -0.2731
     29 C         139.6273  148.9834  154.0311 C.ar    1  UNL1        0.0829
     30 C         139.4915  150.4193  153.6187 C.ar    1  UNL1        0.0192
     31 C         138.9002  151.4193  154.5675 C.ar    1  UNL1        0.0064
     32 C         138.4447  150.9836  155.9287 C.ar    1  UNL1        0.0611
     33 C         138.5805  149.5478  156.3410 C.ar    1  UNL1        0.2648
     34 O         138.1250  149.1120  157.7021 O.2     1  UNL1       -0.2666
     35 S         141.8546  136.8631  156.6454 S.O2    1  UNL1        0.0438
     36 O         143.2456  136.9966  157.1908 O.2     1  UNL1       -0.1573
     37 O         140.4637  136.7297  156.1000 O.2     1  UNL1       -0.1573
     38 C         143.5480  134.9112  156.3770 C.3     1  UNL1        0.0289
     39 C         142.1803  135.4845  156.1522 C.3     1  UNL1        0.1692
@<TRIPOS>BOND
     1    38    39    1
     2    39    35    1
     3    35    36    2
     4    35    37    2
     5    35     1    1
     6     1     2    1
     7     2     3    1
     8     3     6    1
     9     6     7    2
    10     6     8   am
    11     8    10    1
    12    10    11   ar
    13    11    12   ar
    14    12    13   ar
    15    13    14    1
    16    13    15   ar
    17    15    16   ar
    18     3     4    1
    19     4    17    1
    20    17    18    2
    21    17    19   am
    22    19    21    1
    23    21    22   ar
    24    22    23   ar
    25    23    24   ar
    26    24    28    1
    27    28    29   ar
    28    29    30   ar
    29    30    31   ar
    30    31    32   ar
    31    32    33   ar
    32    33    34    2
    33    24    25   ar
    34    25    26   ar
    35    26    27    1
    36     4     5    1
    37     5     1    1
    38    16    10   ar
    39    26    21   ar
    40    33    28   ar
    41     8     9    1
    42    19    20    1
@<TRIPOS>MOLECULE
*****
 39 42 0 0 0
SMALL
GASTEIGER

@<TRIPOS>ATOM
      1 N         145.1961  141.2592  156.1731 N.3     1  UNL1       -0.1584
      2 C         144.4394  141.4231  157.4580 C.3     1  UNL1        0.1050
      3 C         143.6222  140.1843  157.6759 C.3     1  UNL1        0.1045
      4 C         143.8738  139.2547  156.5258 C.3     1  UNL1        0.1045
      5 C         144.8465  139.9190  155.5971 C.3     1  UNL1        0.1050
      6 C         142.7130  139.9213  158.8396 C.2     1  UNL1        0.2286
      7 O         142.0015  141.0602  159.5079 O.2     1  UNL1       -0.2747
      8 N         142.5153  138.5193  159.3350 N.am    1  UNL1       -0.2693
      9 H         142.9823  137.7718  158.8964 H       1  UNL1        0.1563
     10 C         141.6061  138.2563  160.4988 C.ar    1  UNL1        0.1342
     11 C         140.1197  138.3628  160.3283 C.ar    1  UNL1        0.0354
     12 C         139.2106  138.0997  161.4920 C.ar    1  UNL1        0.0158
     13 C         139.7879  137.7302  162.8262 C.ar    1  UNL1        0.0769
     14 CL        138.8787  137.4672  163.9900 Cl      1  UNL1       -0.0806
     15 C         141.2743  137.6238  162.9967 C.ar    1  UNL1        0.1116
     16 N         142.1835  137.8868  161.8330 N.ar    1  UNL1       -0.2281
     17 C         143.2604  137.8989  156.3376 C.2     1  UNL1        0.2276
     18 O         141.7707  137.7346  156.3992 O.2     1  UNL1       -0.2747
     19 N         144.1367  136.7074  156.0879 N.am    1  UNL1       -0.2821
     20 H         145.1144  136.8152  156.0475 H       1  UNL1        0.1549
     21 C         143.5233  135.3515  155.8997 C.ar    1  UNL1        0.0782
     22 C         143.0897  134.9075  154.5341 C.ar    1  UNL1        0.0184
     23 C         142.4763  133.5517  154.3458 C.ar    1  UNL1        0.0190
     24 C         142.2966  132.6398  155.5231 C.ar    1  UNL1        0.0692
     25 C         142.7303  133.0838  156.8887 C.ar    1  UNL1        0.0485
     26 C         143.3436  134.4396  157.0770 C.ar    1  UNL1        0.1549
     27 F         143.7772  134.8836  158.4426 F       1  UNL1       -0.2028
     28 N         141.6833  131.2840  155.3349 N.ar    1  UNL1       -0.2731
     29 C         140.2988  131.1588  154.7715 C.ar    1  UNL1        0.0829
     30 C         139.6853  129.8029  154.5832 C.ar    1  UNL1        0.0192
     31 C         140.4564  128.5723  154.9584 C.ar    1  UNL1        0.0064
     32 C         141.8409  128.6974  155.5219 C.ar    1  UNL1        0.0611
     33 C         142.4544  130.0532  155.7101 C.ar    1  UNL1        0.2648
     34 O         143.8388  130.1784  156.2736 O.2     1  UNL1       -0.2666
     35 S         146.1371  142.2597  155.5703 S.O2    1  UNL1        0.0438
     36 O         145.3781  142.1950  154.2781 O.2     1  UNL1       -0.1573
     37 O         146.8961  142.3245  156.8625 O.2     1  UNL1       -0.1573
     38 C         147.3724  143.2219  153.4971 C.3     1  UNL1        0.0289
     39 C         147.0781  143.2602  154.9674 C.3     1  UNL1        0.1692
@<TRIPOS>BOND
     1    38    39    1
     2    39    35    1
     3    35    36    2
     4    35    37    2
     5    35     1    1
     6     1     2    1
     7     2     3    1
     8     3     6    1
     9     6     7    2
    10     6     8   am
    11     8    10    1
    12    10    11   ar
    13    11    12   ar
    14    12    13   ar
    15    13    14    1
    16    13    15   ar
    17    15    16   ar
    18     3     4    1
    19     4    17    1
    20    17    18    2
    21    17    19   am
    22    19    21    1
    23    21    22   ar
    24    22    23   ar
    25    23    24   ar
    26    24    28    1
    27    28    29   ar
    28    29    30   ar
    29    30    31   ar
    30    31    32   ar
    31    32    33   ar
    32    33    34    2
    33    24    25   ar
    34    25    26   ar
    35    26    27    1
    36     4     5    1
    37     5     1    1
    38    16    10   ar
    39    26    21   ar
    40    33    28   ar
    41     8     9    1
    42    19    20    1
@<TRIPOS>MOLECULE
*****
 39 42 0 0 0
SMALL
GASTEIGER

@<TRIPOS>ATOM
      1 N         139.8555  138.5302  161.7013 N.3     1  UNL1       -0.1584
      2 C         138.9021  138.9790  160.6336 C.3     1  UNL1        0.1050
      3 C         139.7091  139.4648  159.4662 C.3     1  UNL1        0.1045
      4 C         141.1610  139.3162  159.8122 C.3     1  UNL1        0.1045
      5 C         141.2515  138.7386  161.1936 C.3     1  UNL1        0.1050
      6 C         139.1602  140.0044  158.1786 C.2     1  UNL1        0.2286
      7 O         140.0539  140.1427  156.9819 O.2     1  UNL1       -0.2747
      8 N         137.7178  140.4057  158.0879 N.am    1  UNL1       -0.2693
      9 H         137.1312  140.3149  158.8733 H       1  UNL1        0.1563
     10 C         137.1690  140.9453  156.8003 C.ar    1  UNL1        0.1342
     11 C         137.1742  142.4231  156.5437 C.ar    1  UNL1        0.0354
     12 C         136.6254  142.9627  155.2562 C.ar    1  UNL1        0.0158
     13 C         136.0714  142.0244  154.2254 C.ar    1  UNL1        0.0769
     14 CL        135.5226  142.5640  152.9378 Cl      1  UNL1       -0.0806
     15 C         136.0662  140.5465  154.4820 C.ar    1  UNL1        0.1116
     16 N         136.6150  140.0070  155.7695 N.ar    1  UNL1       -0.2281
     17 C         142.3190  139.6811  158.9315 C.2     1  UNL1        0.2276
     18 O         143.2965  138.6272  158.5027 O.2     1  UNL1       -0.2747
     19 N         142.4996  141.1000  158.4795 N.am    1  UNL1       -0.2821
     20 H         141.8581  141.7917  158.7609 H       1  UNL1        0.1549
     21 C         143.6577  141.4650  157.5988 C.ar    1  UNL1        0.0782
     22 C         143.6202  141.1358  156.1358 C.ar    1  UNL1        0.0184
     23 C         144.7782  141.5008  155.2550 C.ar    1  UNL1        0.0190
     24 C         145.9737  142.1950  155.8372 C.ar    1  UNL1        0.0692
     25 C         146.0111  142.5242  157.3002 C.ar    1  UNL1        0.0485
     26 C         144.8531  142.1592  158.1810 C.ar    1  UNL1        0.1549
     27 F         144.8906  142.4883  159.6439 F       1  UNL1       -0.2028
     28 N         147.1317  142.5600  154.9565 N.ar    1  UNL1       -0.2731
     29 C         148.4186  141.7957  155.0545 C.ar    1  UNL1        0.0829
     30 C         149.5768  142.1607  154.1738 C.ar    1  UNL1        0.0192
     31 C         149.4478  143.2900  153.1950 C.ar    1  UNL1        0.0064
     32 C         148.1609  144.0543  153.0970 C.ar    1  UNL1        0.0611
     33 C         147.0029  143.6893  153.9776 C.ar    1  UNL1        0.2648
     34 O         145.7159  144.4536  153.8796 O.2     1  UNL1       -0.2666
     35 S         139.4789  137.9712  163.0413 S.O2    1  UNL1        0.0438
     36 O         140.6509  137.0370  162.9809 O.2     1  UNL1       -0.1573
     37 O         138.3069  138.9054  163.1017 O.2     1  UNL1       -0.1573
     38 C         138.5787  138.3216  165.4531 C.3     1  UNL1        0.0289
     39 C         139.1023  137.4122  164.3813 C.3     1  UNL1        0.1692
@<TRIPOS>BOND
     1    38    39    1
     2    39    35    1
     3    35    36    2
     4    35    37    2
     5    35     1    1
     6     1     2    1
     7     2     3    1
     8     3     6    1
     9     6     7    2
    10     6     8   am
    11     8    10    1
    12    10    11   ar
    13    11    12   ar
    14    12    13   ar
    15    13    14    1
    16    13    15   ar
    17    15    16   ar
    18     3     4    1
    19     4    17    1
    20    17    18    2
    21    17    19   am
    22    19    21    1
    23    21    22   ar
    24    22    23   ar
    25    23    24   ar
    26    24    28    1
    27    28    29   ar
    28    29    30   ar
    29    30    31   ar
    30    31    32   ar
    31    32    33   ar
    32    33    34    2
    33    24    25   ar
    34    25    26   ar
    35    26    27    1
    36     4     5    1
    37     5     1    1
    38    16    10   ar
    39    26    21   ar
    40    33    28   ar
    41     8     9    1
    42    19    20    1
@<TRIPOS>MOLECULE
*****
 39 42 0 0 0
SMALL
GASTEIGER

@<TRIPOS>ATOM
      1 N         139.6789  142.6090  161.2760 N.3     1  UNL1       -0.1584
      2 C         139.6534  141.1484  160.9352 C.3     1  UNL1        0.1050
      3 C         140.7407  140.8866  159.9355 C.3     1  UNL1        0.1045
      4 C         141.4382  142.1853  159.6584 C.3     1  UNL1        0.1045
      5 C         140.7820  143.2498  160.4868 C.3     1  UNL1        0.1050
      6 C         141.0722  139.5590  159.3209 C.2     1  UNL1        0.2286
      7 O         141.4529  138.4016  160.1958 O.2     1  UNL1       -0.2747
      8 N         141.0229  139.3889  157.8314 N.am    1  UNL1       -0.2693
      9 H         140.7730  140.1485  157.2572 H       1  UNL1        0.1563
     10 C         141.3545  138.0613  157.2168 C.ar    1  UNL1        0.1342
     11 C         140.4227  137.4444  156.2162 C.ar    1  UNL1        0.0354
     12 C         140.7542  136.1169  155.6017 C.ar    1  UNL1        0.0158
     13 C         142.0175  135.4063  155.9876 C.ar    1  UNL1        0.0769
     14 CL        142.3491  134.0787  155.3730 Cl      1  UNL1       -0.0806
     15 C         142.9493  136.0232  156.9882 C.ar    1  UNL1        0.1116
     16 N         142.6178  137.3507  157.6028 N.ar    1  UNL1       -0.2281
     17 C         142.5896  142.3845  158.7180 C.2     1  UNL1        0.2276
     18 O         142.5395  143.4773  157.6918 O.2     1  UNL1       -0.2747
     19 N         143.7913  141.4908  158.8038 N.am    1  UNL1       -0.2821
     20 H         143.8242  140.7735  159.4773 H       1  UNL1        0.1549
     21 C         144.9428  141.6898  157.8634 C.ar    1  UNL1        0.0782
     22 C         146.0170  142.6836  158.1929 C.ar    1  UNL1        0.0184
     23 C         147.1685  142.8828  157.2526 C.ar    1  UNL1        0.0190
     24 C         147.2459  142.0881  155.9827 C.ar    1  UNL1        0.0692
     25 C         146.1717  141.0943  155.6532 C.ar    1  UNL1        0.0485
     26 C         145.0202  140.8952  156.5936 C.ar    1  UNL1        0.1549
     27 F         143.9460  139.9014  156.2641 F       1  UNL1       -0.2028
     28 N         148.3974  142.2872  155.0423 N.ar    1  UNL1       -0.2731
     29 C         149.6882  141.5587  155.2725 C.ar    1  UNL1        0.0829
     30 C         150.8399  141.7577  154.3321 C.ar    1  UNL1        0.0192
     31 C         150.7006  142.6853  153.1616 C.ar    1  UNL1        0.0064
     32 C         149.4097  143.4138  152.9314 C.ar    1  UNL1        0.0611
     33 C         148.2582  143.2148  153.8717 C.ar    1  UNL1        0.2648
     34 O         146.9673  143.9433  153.6416 O.2     1  UNL1       -0.2666
     35 S         138.7624  143.3064  162.2370 S.O2    1  UNL1        0.0438
     36 O         139.9105  143.5170  163.1791 O.2     1  UNL1       -0.1573
     37 O         137.6143  143.0957  161.2949 O.2     1  UNL1       -0.1573
     38 C         138.2252  144.1221  164.6445 C.3     1  UNL1        0.0289
     39 C         137.8459  144.0037  163.1981 C.3     1  UNL1        0.1692
@<TRIPOS>BOND
     1    38    39    1
     2    39    35    1
     3    35    36    2
     4    35    37    2
     5    35     1    1
     6     1     2    1
     7     2     3    1
     8     3     6    1
     9     6     7    2
    10     6     8   am
    11     8    10    1
    12    10    11   ar
    13    11    12   ar
    14    12    13   ar
    15    13    14    1
    16    13    15   ar
    17    15    16   ar
    18     3     4    1
    19     4    17    1
    20    17    18    2
    21    17    19   am
    22    19    21    1
    23    21    22   ar
    24    22    23   ar
    25    23    24   ar
    26    24    28    1
    27    28    29   ar
    28    29    30   ar
    29    30    31   ar
    30    31    32   ar
    31    32    33   ar
    32    33    34    2
    33    24    25   ar
    34    25    26   ar
    35    26    27    1
    36     4     5    1
    37     5     1    1
    38    16    10   ar
    39    26    21   ar
    40    33    28   ar
    41     8     9    1
    42    19    20    1
@<TRIPOS>MOLECULE
*****
 39 42 0 0 0
SMALL
GASTEIGER

@<TRIPOS>ATOM
      1 N         140.2362  145.8394  156.5615 N.3     1  UNL1       -0.1584
      2 C         140.4162  145.9259  158.0482 C.3     1  UNL1        0.1050
      3 C         140.8436  144.5758  158.5427 C.3     1  UNL1        0.1045
      4 C         140.9279  143.6549  157.3617 C.3     1  UNL1        0.1045
      5 C         140.5525  144.4358  156.1372 C.3     1  UNL1        0.1050
      6 C         141.1356  144.2108  159.9680 C.2     1  UNL1        0.2286
      7 O         140.0079  144.0027  160.9350 O.2     1  UNL1       -0.2747
      8 N         142.5552  144.0538  160.4263 N.am    1  UNL1       -0.2693
      9 H         143.2953  144.1904  159.7917 H       1  UNL1        0.1563
     10 C         142.8471  143.6887  161.8517 C.ar    1  UNL1        0.1342
     11 C         143.2044  144.7576  162.8416 C.ar    1  UNL1        0.0354
     12 C         143.4963  144.3925  164.2668 C.ar    1  UNL1        0.0158
     13 C         143.4310  142.9586  164.7022 C.ar    1  UNL1        0.0769
     14 CL        143.7230  142.5935  166.1276 Cl      1  UNL1       -0.0806
     15 C         143.0738  141.8897  163.7124 C.ar    1  UNL1        0.1116
     16 N         142.7818  142.2548  162.2871 N.ar    1  UNL1       -0.2281
     17 C         141.3188  142.2073  157.3986 C.2     1  UNL1        0.2276
     18 O         142.2019  141.6967  158.4984 O.2     1  UNL1       -0.2747
     19 N         140.8267  141.2701  156.3358 N.am    1  UNL1       -0.2821
     20 H         140.2471  141.6052  155.6140 H       1  UNL1        0.1549
     21 C         141.2176  139.8224  156.3727 C.ar    1  UNL1        0.0782
     22 C         142.5044  139.3767  155.7438 C.ar    1  UNL1        0.0184
     23 C         142.8954  137.9291  155.7806 C.ar    1  UNL1        0.0190
     24 C         141.9995  136.9271  156.4465 C.ar    1  UNL1        0.0692
     25 C         140.7128  137.3727  157.0755 C.ar    1  UNL1        0.0485
     26 C         140.3218  138.8203  157.0386 C.ar    1  UNL1        0.1549
     27 F         139.0350  139.2660  157.6676 F       1  UNL1       -0.2028
     28 N         142.3904  135.4794  156.4834 N.ar    1  UNL1       -0.2731
     29 C         143.3529  134.9887  157.5240 C.ar    1  UNL1        0.0829
     30 C         143.7439  133.5410  157.5610 C.ar    1  UNL1        0.0192
     31 C         143.1724  132.5840  156.5573 C.ar    1  UNL1        0.0064
     32 C         142.2099  133.0746  155.5167 C.ar    1  UNL1        0.0611
     33 C         141.8189  134.5223  155.4797 C.ar    1  UNL1        0.2648
     34 O         140.8564  135.0129  154.4391 O.2     1  UNL1       -0.2666
     35 S         139.8142  146.9598  155.6578 S.O2    1  UNL1        0.0438
     36 O         140.7418  146.4514  154.5943 O.2     1  UNL1       -0.1573
     37 O         138.8866  147.4682  156.7213 O.2     1  UNL1       -0.1573
     38 C         138.8504  149.3511  155.3380 C.3     1  UNL1        0.0289
     39 C         139.3921  148.0801  154.7541 C.3     1  UNL1        0.1692
@<TRIPOS>BOND
     1    38    39    1
     2    39    35    1
     3    35    36    2
     4    35    37    2
     5    35     1    1
     6     1     2    1
     7     2     3    1
     8     3     6    1
     9     6     7    2
    10     6     8   am
    11     8    10    1
    12    10    11   ar
    13    11    12   ar
    14    12    13   ar
    15    13    14    1
    16    13    15   ar
    17    15    16   ar
    18     3     4    1
    19     4    17    1
    20    17    18    2
    21    17    19   am
    22    19    21    1
    23    21    22   ar
    24    22    23   ar
    25    23    24   ar
    26    24    28    1
    27    28    29   ar
    28    29    30   ar
    29    30    31   ar
    30    31    32   ar
    31    32    33   ar
    32    33    34    2
    33    24    25   ar
    34    25    26   ar
    35    26    27    1
    36     4     5    1
    37     5     1    1
    38    16    10   ar
    39    26    21   ar
    40    33    28   ar
    41     8     9    1
    42    19    20    1
