@<TRIPOS>MOLECULE
*****
 42 47 0 0 0
SMALL
GASTEIGER

@<TRIPOS>ATOM
      1 C         141.8802  143.2210  159.8751 C.3     1  UNL1        0.0832
      2 C         142.9284  143.5204  158.8449 C.3     1  UNL1        0.0374
      3 C         142.5839  144.3495  157.6433 C.3     1  UNL1        0.0738
      4 N         141.1910  144.8793  157.4720 N.3     1  UNL1       -0.2734
      5 C         140.1428  144.5800  158.5023 C.3     1  UNL1        0.0828
      6 C         140.4873  143.7508  159.7038 C.3     1  UNL1        0.1103
      7 C         140.8465  145.7085  156.2704 C.3     1  UNL1        0.0575
      8 C         139.7770  146.7560  156.3637 C.3     1  UNL1        0.0160
      9 C         139.4325  147.5852  155.1620 C.3     1  UNL1        0.0014
     10 C         140.1575  147.3668  153.8672 C.3     1  UNL1        0.0001
     11 C         141.2271  146.3191  153.7740 C.3     1  UNL1        0.0014
     12 C         141.5715  145.4900  154.9756 C.3     1  UNL1        0.0160
     13 O         143.3720  144.4513  162.1688 O.2     1  UNL1       -0.2684
     14 C         142.9706  143.0070  162.2236 C.2     1  UNL1        0.2669
     15 N         142.2247  142.3918  161.0768 N.am    1  UNL1       -0.3006
     16 H         141.9612  141.4439  161.1127 H       1  UNL1        0.1497
     17 C         143.3152  142.1779  163.4252 C.ar    1  UNL1        0.1761
     18 C         142.7474  142.3444  164.8036 C.ar    1  UNL1        0.0673
     19 C         143.3693  141.3062  165.6896 C.ar    1  UNL1        0.1792
     20 O         144.3214  140.4979  164.8589 O.2     1  UNL1       -0.3532
     21 N         144.2880  141.0367  163.4594 N.ar    1  UNL1       -0.0723
     22 C         143.0884  141.1105  167.1500 C.ar    1  UNL1        0.0648
     23 C         143.1518  142.2785  168.0891 C.ar    1  UNL1        0.0077
     24 C         142.8709  142.0828  169.5495 C.ar    1  UNL1        0.0299
     25 C         142.5266  140.7191  170.0708 C.ar    1  UNL1        0.1424
     26 F         142.2457  140.5234  171.5312 F       1  UNL1       -0.2041
     27 C         142.4632  139.5512  169.1318 C.ar    1  UNL1        0.0593
     28 C         142.7441  139.7469  167.6714 C.ar    1  UNL1        0.1453
     29 F         142.6807  138.5789  166.7324 F       1  UNL1       -0.2040
     30 C         139.4390  143.4515  160.7342 C.2     1  UNL1        0.2252
     31 O         138.0993  142.9267  160.3105 O.2     1  UNL1       -0.2750
     32 N         139.7306  143.6769  162.1882 N.am    1  UNL1       -0.3025
     33 H         140.6100  144.0213  162.4663 H       1  UNL1        0.1497
     34 C         138.6824  143.3776  163.2185 C.3     1  UNL1        0.0921
     35 C         137.4527  143.5301  164.0638 C.3     1  UNL1        0.0258
     36 C         137.7957  144.5748  163.0435 C.3     1  UNL1        0.0258
     37 C         139.2049  142.0765  163.7514 C.ar    1  UNL1        0.0749
     38 C         139.0659  141.7531  165.2095 C.ar    1  UNL1        0.0163
     39 C         139.5884  140.4519  165.7424 C.ar    1  UNL1        0.0029
     40 C         140.2501  139.4742  164.8172 C.ar    1  UNL1        0.0207
     41 C         140.3891  139.7975  163.3591 C.ar    1  UNL1        0.0985
     42 N         139.8666  141.0986  162.8261 N.ar    1  UNL1       -0.2466
@<TRIPOS>BOND
     1    13    14    2
     2    14    15   am
     3     1    15    1
     4     1     2    1
     5     2     3    1
     6     3     4    1
     7     4     7    1
     8     7     8    1
     9     8     9    1
    10     9    10    1
    11    10    11    1
    12    11    12    1
    13     4     5    1
    14     5     6    1
    15     6    30    1
    16    30    31    2
    17    30    32   am
    18    32    34    1
    19    34    37    1
    20    37    38   ar
    21    38    39   ar
    22    39    40   ar
    23    40    41   ar
    24    41    42   ar
    25    34    35    1
    26    35    36    1
    27    14    17    1
    28    17    18   ar
    29    18    19   ar
    30    19    22    1
    31    22    23   ar
    32    23    24   ar
    33    24    25   ar
    34    25    26    1
    35    25    27   ar
    36    27    28   ar
    37    28    29    1
    38    19    20   ar
    39    20    21   ar
    40     6     1    1
    41    36    34    1
    42    21    17   ar
    43    12     7    1
    44    42    37   ar
    45    28    22   ar
    46    15    16    1
    47    32    33    1
@<TRIPOS>MOLECULE
*****
 42 47 0 0 0
SMALL
GASTEIGER

@<TRIPOS>ATOM
      1 C         143.0481  141.0168  160.2126 C.3     1  UNL1        0.0832
      2 C         143.7256  140.0024  159.3397 C.3     1  UNL1        0.0374
      3 C         144.4514  140.4424  158.1030 C.3     1  UNL1        0.0738
      4 N         144.4998  141.8968  157.7391 N.3     1  UNL1       -0.2734
      5 C         143.8222  142.9112  158.6120 C.3     1  UNL1        0.0828
      6 C         143.0964  142.4712  159.8487 C.3     1  UNL1        0.1103
      7 C         145.2256  142.3368  156.5023 C.3     1  UNL1        0.0575
      8 C         146.7211  142.2406  156.4362 C.3     1  UNL1        0.0160
      9 C         147.4470  142.6806  155.1994 C.3     1  UNL1        0.0014
     10 C         146.6774  143.2167  154.0288 C.3     1  UNL1        0.0001
     11 C         145.1819  143.3129  154.0950 C.3     1  UNL1        0.0014
     12 C         144.4560  142.8729  155.3318 C.3     1  UNL1        0.0160
     13 O         144.5958  140.1424  162.6291 O.2     1  UNL1       -0.2684
     14 C         143.0961  140.1397  162.6576 C.2     1  UNL1        0.2669
     15 N         142.3222  140.5769  161.4494 N.am    1  UNL1       -0.3006
     16 H         141.3379  140.5751  161.4680 H       1  UNL1        0.1497
     17 C         142.3702  139.6997  163.8944 C.ar    1  UNL1        0.1761
     18 C         142.4604  140.3441  165.2459 C.ar    1  UNL1        0.0673
     19 C         141.5727  139.5808  166.1836 C.ar    1  UNL1        0.1792
     20 O         140.9339  138.4645  165.4116 O.2     1  UNL1       -0.3532
     21 N         141.4268  138.5381  163.9968 N.ar    1  UNL1       -0.0723
     22 C         141.3610  139.8809  167.6379 C.ar    1  UNL1        0.0648
     23 C         142.5406  140.1042  168.5372 C.ar    1  UNL1        0.0077
     24 C         142.3289  140.4043  169.9915 C.ar    1  UNL1        0.0299
     25 C         140.9375  140.4812  170.5465 C.ar    1  UNL1        0.1424
     26 F         140.7258  140.7814  172.0009 F       1  UNL1       -0.2041
     27 C         139.7579  140.2581  169.6473 C.ar    1  UNL1        0.0593
     28 C         139.9697  139.9579  168.1930 C.ar    1  UNL1        0.1453
     29 F         138.7900  139.7347  167.2938 F       1  UNL1       -0.2040
     30 C         142.4188  143.4856  160.7216 C.2     1  UNL1        0.2252
     31 O         143.2314  144.3378  161.6508 O.2     1  UNL1       -0.2750
     32 N         140.9287  143.6478  160.6653 N.am    1  UNL1       -0.3025
     33 H         140.3954  143.0885  160.0554 H       1  UNL1        0.1497
     34 C         140.2511  144.6622  161.5381 C.3     1  UNL1        0.0921
     35 C         139.6895  145.9743  161.9996 C.3     1  UNL1        0.0258
     36 C         140.3497  145.8718  160.6565 C.3     1  UNL1        0.0258
     37 C         139.9171  143.8049  162.7228 C.ar    1  UNL1        0.0749
     38 C         139.9327  144.3932  164.1025 C.ar    1  UNL1        0.0163
     39 C         139.5987  143.5359  165.2873 C.ar    1  UNL1        0.0029
     40 C         139.2492  142.0903  165.0922 C.ar    1  UNL1        0.0207
     41 C         139.2337  141.5020  163.7125 C.ar    1  UNL1        0.0985
     42 N         139.5676  142.3592  162.5278 N.ar    1  UNL1       -0.2466
@<TRIPOS>BOND
     1    13    14    2
     2    14    15   am
     3     1    15    1
     4     1     2    1
     5     2     3    1
     6     3     4    1
     7     4     7    1
     8     7     8    1
     9     8     9    1
    10     9    10    1
    11    10    11    1
    12    11    12    1
    13     4     5    1
    14     5     6    1
    15     6    30    1
    16    30    31    2
    17    30    32   am
    18    32    34    1
    19    34    37    1
    20    37    38   ar
    21    38    39   ar
    22    39    40   ar
    23    40    41   ar
    24    41    42   ar
    25    34    35    1
    26    35    36    1
    27    14    17    1
    28    17    18   ar
    29    18    19   ar
    30    19    22    1
    31    22    23   ar
    32    23    24   ar
    33    24    25   ar
    34    25    26    1
    35    25    27   ar
    36    27    28   ar
    37    28    29    1
    38    19    20   ar
    39    20    21   ar
    40     6     1    1
    41    36    34    1
    42    21    17   ar
    43    12     7    1
    44    42    37   ar
    45    28    22   ar
    46    15    16    1
    47    32    33    1
@<TRIPOS>MOLECULE
*****
 42 47 0 0 0
SMALL
GASTEIGER

@<TRIPOS>ATOM
      1 C         141.1866  143.7461  161.0682 C.3     1  UNL1        0.0832
      2 C         140.9156  145.1648  160.6636 C.3     1  UNL1        0.0374
      3 C         140.7554  145.5135  159.2135 C.3     1  UNL1        0.0738
      4 N         140.8661  144.4436  158.1681 N.3     1  UNL1       -0.2734
      5 C         141.1370  143.0248  158.5727 C.3     1  UNL1        0.0828
      6 C         141.2973  142.6761  160.0228 C.3     1  UNL1        0.1103
      7 C         140.7059  144.7924  156.7180 C.3     1  UNL1        0.0575
      8 C         140.5980  146.2288  156.2996 C.3     1  UNL1        0.0160
      9 C         140.4377  146.5776  154.8495 C.3     1  UNL1        0.0014
     10 C         140.3855  145.4899  153.8179 C.3     1  UNL1        0.0001
     11 C         140.4934  144.0535  154.2363 C.3     1  UNL1        0.0014
     12 C         140.6537  143.7047  155.6864 C.3     1  UNL1        0.0160
     13 O         143.8943  143.8798  162.3528 O.2     1  UNL1       -0.2684
     14 C         142.7007  143.4641  163.1606 C.2     1  UNL1        0.2669
     15 N         141.3468  143.3973  162.5183 N.am    1  UNL1       -0.3006
     16 H         140.5634  143.1245  163.0485 H       1  UNL1        0.1497
     17 C         142.8609  143.1154  164.6106 C.ar    1  UNL1        0.1761
     18 C         141.8709  142.3654  165.4517 C.ar    1  UNL1        0.0673
     19 C         142.4374  142.2418  166.8351 C.ar    1  UNL1        0.1792
     20 O         143.7776  142.9155  166.8490 O.2     1  UNL1       -0.3532
     21 N         144.0393  143.4553  165.4742 N.ar    1  UNL1       -0.0723
     22 C         141.7794  141.5637  168.0000 C.ar    1  UNL1        0.0648
     23 C         142.2784  140.2298  168.4712 C.ar    1  UNL1        0.0077
     24 C         141.6203  139.5517  169.6361 C.ar    1  UNL1        0.0299
     25 C         140.4633  140.2074  170.3299 C.ar    1  UNL1        0.1424
     26 F         139.8053  139.5293  171.4949 F       1  UNL1       -0.2041
     27 C         139.9644  141.5412  169.8588 C.ar    1  UNL1        0.0593
     28 C         140.6224  142.2193  168.6939 C.ar    1  UNL1        0.1453
     29 F         140.1235  143.5532  168.2227 F       1  UNL1       -0.2040
     30 C         141.5682  141.2573  160.4275 C.2     1  UNL1        0.2252
     31 O         140.5082  140.4626  161.1308 O.2     1  UNL1       -0.2750
     32 N         142.8991  140.6333  160.1288 N.am    1  UNL1       -0.3025
     33 H         143.5949  141.1550  159.6672 H       1  UNL1        0.1497
     34 C         143.1701  139.2146  160.5335 C.3     1  UNL1        0.0921
     35 C         143.2661  137.7198  160.4534 C.3     1  UNL1        0.0258
     36 C         142.7606  138.5030  159.2781 C.3     1  UNL1        0.0258
     37 C         143.6737  139.4335  161.9293 C.ar    1  UNL1        0.0749
     38 C         143.0534  138.6910  163.0755 C.ar    1  UNL1        0.0163
     39 C         143.5570  138.9099  164.4715 C.ar    1  UNL1        0.0029
     40 C         144.6809  139.8713  164.7211 C.ar    1  UNL1        0.0207
     41 C         145.3013  140.6138  163.5749 C.ar    1  UNL1        0.0985
     42 N         144.7977  140.3950  162.1790 N.ar    1  UNL1       -0.2466
@<TRIPOS>BOND
     1    13    14    2
     2    14    15   am
     3     1    15    1
     4     1     2    1
     5     2     3    1
     6     3     4    1
     7     4     7    1
     8     7     8    1
     9     8     9    1
    10     9    10    1
    11    10    11    1
    12    11    12    1
    13     4     5    1
    14     5     6    1
    15     6    30    1
    16    30    31    2
    17    30    32   am
    18    32    34    1
    19    34    37    1
    20    37    38   ar
    21    38    39   ar
    22    39    40   ar
    23    40    41   ar
    24    41    42   ar
    25    34    35    1
    26    35    36    1
    27    14    17    1
    28    17    18   ar
    29    18    19   ar
    30    19    22    1
    31    22    23   ar
    32    23    24   ar
    33    24    25   ar
    34    25    26    1
    35    25    27   ar
    36    27    28   ar
    37    28    29    1
    38    19    20   ar
    39    20    21   ar
    40     6     1    1
    41    36    34    1
    42    21    17   ar
    43    12     7    1
    44    42    37   ar
    45    28    22   ar
    46    15    16    1
    47    32    33    1
@<TRIPOS>MOLECULE
*****
 42 47 0 0 0
SMALL
GASTEIGER

@<TRIPOS>ATOM
      1 C         140.0828  143.5528  160.0827 C.3     1  UNL1        0.0832
      2 C         140.3879  145.0159  160.2103 C.3     1  UNL1        0.0374
      3 C         140.3467  145.8990  158.9985 C.3     1  UNL1        0.0738
      4 N         140.0004  145.3190  157.6592 N.3     1  UNL1       -0.2734
      5 C         139.6954  143.8560  157.5316 C.3     1  UNL1        0.0828
      6 C         139.7366  142.9728  158.7434 C.3     1  UNL1        0.1103
      7 C         139.9592  146.2022  156.4474 C.3     1  UNL1        0.0575
      8 C         140.7843  145.8609  155.2422 C.3     1  UNL1        0.0160
      9 C         140.7431  146.7441  154.0304 C.3     1  UNL1        0.0014
     10 C         139.8768  147.9686  154.0240 C.3     1  UNL1        0.0001
     11 C         139.0518  148.3100  155.2294 C.3     1  UNL1        0.0014
     12 C         139.0930  147.4268  156.4410 C.3     1  UNL1        0.0160
     13 O         137.5921  143.0961  161.6913 O.2     1  UNL1       -0.2684
     14 C         138.8786  142.4412  162.0988 C.2     1  UNL1        0.2669
     15 N         140.1240  142.6696  161.2945 N.am    1  UNL1       -0.3006
     16 H         140.9684  142.2398  161.5619 H       1  UNL1        0.1497
     17 C         138.9198  141.5581  163.3105 C.ar    1  UNL1        0.1761
     18 C         140.0033  141.5339  164.3475 C.ar    1  UNL1        0.0673
     19 C         139.6378  140.5049  165.3759 C.ar    1  UNL1        0.1792
     20 O         138.3284  139.8931  164.9744 O.2     1  UNL1       -0.3532
     21 N         137.8846  140.5440  163.6979 N.ar    1  UNL1       -0.0723
     22 C         140.4407  140.1500  166.5922 C.ar    1  UNL1        0.0648
     23 C         139.8462  140.3191  167.9589 C.ar    1  UNL1        0.0077
     24 C         140.6491  139.9642  169.1752 C.ar    1  UNL1        0.0299
     25 C         142.0465  139.4402  169.0247 C.ar    1  UNL1        0.1424
     26 F         142.8494  139.0853  170.2410 F       1  UNL1       -0.2041
     27 C         142.6410  139.2711  167.6581 C.ar    1  UNL1        0.0593
     28 C         141.8381  139.6260  166.4418 C.ar    1  UNL1        0.1453
     29 F         142.4326  139.4569  165.0750 F       1  UNL1       -0.2040
     30 C         139.4316  141.5097  158.6158 C.2     1  UNL1        0.2252
     31 O         138.0130  141.0293  158.6987 O.2     1  UNL1       -0.2750
     32 N         140.5451  140.5270  158.4054 N.am    1  UNL1       -0.3025
     33 H         141.4762  140.8423  158.3510 H       1  UNL1        0.1497
     34 C         140.2401  139.0639  158.2778 C.3     1  UNL1        0.0921
     35 C         139.8581  137.7525  157.6579 C.3     1  UNL1        0.0258
     36 C         139.9124  138.9926  156.8158 C.3     1  UNL1        0.0258
     37 C         140.4619  138.6270  159.6955 C.ar    1  UNL1        0.0749
     38 C         139.2884  138.3786  160.5961 C.ar    1  UNL1        0.0163
     39 C         139.5102  137.9417  162.0139 C.ar    1  UNL1        0.0029
     40 C         140.9055  137.7532  162.5310 C.ar    1  UNL1        0.0207
     41 C         142.0791  138.0017  161.6304 C.ar    1  UNL1        0.0985
     42 N         141.8573  138.4386  160.2127 N.ar    1  UNL1       -0.2466
@<TRIPOS>BOND
     1    13    14    2
     2    14    15   am
     3     1    15    1
     4     1     2    1
     5     2     3    1
     6     3     4    1
     7     4     7    1
     8     7     8    1
     9     8     9    1
    10     9    10    1
    11    10    11    1
    12    11    12    1
    13     4     5    1
    14     5     6    1
    15     6    30    1
    16    30    31    2
    17    30    32   am
    18    32    34    1
    19    34    37    1
    20    37    38   ar
    21    38    39   ar
    22    39    40   ar
    23    40    41   ar
    24    41    42   ar
    25    34    35    1
    26    35    36    1
    27    14    17    1
    28    17    18   ar
    29    18    19   ar
    30    19    22    1
    31    22    23   ar
    32    23    24   ar
    33    24    25   ar
    34    25    26    1
    35    25    27   ar
    36    27    28   ar
    37    28    29    1
    38    19    20   ar
    39    20    21   ar
    40     6     1    1
    41    36    34    1
    42    21    17   ar
    43    12     7    1
    44    42    37   ar
    45    28    22   ar
    46    15    16    1
    47    32    33    1
@<TRIPOS>MOLECULE
*****
 42 47 0 0 0
SMALL
GASTEIGER

@<TRIPOS>ATOM
      1 C         140.0874  139.7410  160.8043 C.3     1  UNL1        0.0832
      2 C         139.8344  138.3952  160.1922 C.3     1  UNL1        0.0374
      3 C         139.6407  138.2698  158.7101 C.3     1  UNL1        0.0738
      4 N         139.7000  139.4902  157.8400 N.3     1  UNL1       -0.2734
      5 C         139.9530  140.8360  158.4521 C.3     1  UNL1        0.0828
      6 C         140.1467  140.9615  159.9342 C.3     1  UNL1        0.1103
      7 C         139.5063  139.3647  156.3578 C.3     1  UNL1        0.0575
      8 C         139.2209  140.5845  155.5328 C.3     1  UNL1        0.0160
      9 C         139.0273  140.4591  154.0506 C.3     1  UNL1        0.0014
     10 C         139.1190  139.1138  153.3935 C.3     1  UNL1        0.0001
     11 C         139.4044  137.8940  154.2186 C.3     1  UNL1        0.0014
     12 C         139.5981  138.0195  155.7007 C.3     1  UNL1        0.0160
     13 O         137.7255  140.2234  162.5901 O.2     1  UNL1       -0.2684
     14 C         139.1001  140.1076  163.1794 C.2     1  UNL1        0.2669
     15 N         140.2810  139.8665  162.2864 N.am    1  UNL1       -0.3006
     16 H         141.1832  139.7905  162.6732 H       1  UNL1        0.1497
     17 C         139.2938  140.2331  164.6615 C.ar    1  UNL1        0.1761
     18 C         140.3113  141.0954  165.3479 C.ar    1  UNL1        0.0673
     19 C         140.1503  140.9135  166.8281 C.ar    1  UNL1        0.1792
     20 O         139.0332  139.9388  167.0565 O.2     1  UNL1       -0.3532
     21 N         138.5039  139.5183  165.7174 N.ar    1  UNL1       -0.0723
     22 C         140.9635  141.5879  167.8929 C.ar    1  UNL1        0.0648
     23 C         140.3924  142.7506  168.6492 C.ar    1  UNL1        0.0077
     24 C         141.2056  143.4250  169.7140 C.ar    1  UNL1        0.0299
     25 C         142.5899  142.9367  170.0225 C.ar    1  UNL1        0.1424
     26 F         143.4032  143.6111  171.0873 F       1  UNL1       -0.2041
     27 C         143.1610  141.7741  169.2662 C.ar    1  UNL1        0.0593
     28 C         142.3478  141.0997  168.2014 C.ar    1  UNL1        0.1453
     29 F         142.9189  139.9370  167.4450 F       1  UNL1       -0.2040
     30 C         140.3997  142.3074  160.5463 C.2     1  UNL1        0.2252
     31 O         141.6880  142.5733  161.2671 O.2     1  UNL1       -0.2750
     32 N         139.3643  143.3873  160.4376 N.am    1  UNL1       -0.3025
     33 H         138.5187  143.2127  159.9646 H       1  UNL1        0.1497
     34 C         139.6172  144.7331  161.0497 C.3     1  UNL1        0.0921
     35 C         140.0546  146.1618  161.1817 C.3     1  UNL1        0.0258
     36 C         140.2361  145.4391  159.8799 C.3     1  UNL1        0.0258
     37 C         139.0862  144.4945  162.4321 C.ar    1  UNL1        0.0749
     38 C         139.8476  144.9931  163.6244 C.ar    1  UNL1        0.0163
     39 C         139.3166  144.7545  165.0070 C.ar    1  UNL1        0.0029
     40 C         138.0242  144.0174  165.1970 C.ar    1  UNL1        0.0207
     41 C         137.2628  143.5188  164.0047 C.ar    1  UNL1        0.0985
     42 N         137.7937  143.7574  162.6222 N.ar    1  UNL1       -0.2466
@<TRIPOS>BOND
     1    13    14    2
     2    14    15   am
     3     1    15    1
     4     1     2    1
     5     2     3    1
     6     3     4    1
     7     4     7    1
     8     7     8    1
     9     8     9    1
    10     9    10    1
    11    10    11    1
    12    11    12    1
    13     4     5    1
    14     5     6    1
    15     6    30    1
    16    30    31    2
    17    30    32   am
    18    32    34    1
    19    34    37    1
    20    37    38   ar
    21    38    39   ar
    22    39    40   ar
    23    40    41   ar
    24    41    42   ar
    25    34    35    1
    26    35    36    1
    27    14    17    1
    28    17    18   ar
    29    18    19   ar
    30    19    22    1
    31    22    23   ar
    32    23    24   ar
    33    24    25   ar
    34    25    26    1
    35    25    27   ar
    36    27    28   ar
    37    28    29    1
    38    19    20   ar
    39    20    21   ar
    40     6     1    1
    41    36    34    1
    42    21    17   ar
    43    12     7    1
    44    42    37   ar
    45    28    22   ar
    46    15    16    1
    47    32    33    1
@<TRIPOS>MOLECULE
*****
 42 47 0 0 0
SMALL
GASTEIGER

@<TRIPOS>ATOM
      1 C         141.3559  143.7664  161.0095 C.3     1  UNL1        0.0832
      2 C         140.8636  145.1531  160.7186 C.3     1  UNL1        0.0374
      3 C         140.6852  145.6032  159.2989 C.3     1  UNL1        0.0738
      4 N         140.9991  144.6665  158.1701 N.3     1  UNL1       -0.2734
      5 C         141.4914  143.2798  158.4610 C.3     1  UNL1        0.0828
      6 C         141.6698  142.8298  159.8807 C.3     1  UNL1        0.1103
      7 C         140.8207  145.1167  156.7503 C.3     1  UNL1        0.0575
      8 C         141.3385  144.2712  155.6248 C.3     1  UNL1        0.0160
      9 C         141.1600  144.7213  154.2050 C.3     1  UNL1        0.0014
     10 C         140.4638  146.0170  153.9109 C.3     1  UNL1        0.0001
     11 C         139.9460  146.8625  155.0366 C.3     1  UNL1        0.0014
     12 C         140.1244  146.4124  156.4562 C.3     1  UNL1        0.0160
     13 O         143.7576  144.6527  162.5734 O.2     1  UNL1       -0.2684
     14 C         142.7352  143.7594  163.2112 C.2     1  UNL1        0.2669
     15 N         141.5343  143.3163  162.4292 N.am    1  UNL1       -0.3006
     16 H         140.8632  142.7300  162.8478 H       1  UNL1        0.1497
     17 C         142.9136  143.3094  164.6309 C.ar    1  UNL1        0.1761
     18 C         141.9003  142.5736  165.4566 C.ar    1  UNL1        0.0673
     19 C         142.4971  142.3255  166.8102 C.ar    1  UNL1        0.1792
     20 O         143.8794  142.9080  166.8210 O.2     1  UNL1       -0.3532
     21 N         144.1368  143.5160  165.4742 N.ar    1  UNL1       -0.0723
     22 C         141.8290  141.6190  167.9523 C.ar    1  UNL1        0.0648
     23 C         142.3412  140.2864  168.4125 C.ar    1  UNL1        0.0077
     24 C         141.6731  139.5799  169.5547 C.ar    1  UNL1        0.0299
     25 C         140.4929  140.2060  170.2366 C.ar    1  UNL1        0.1424
     26 F         139.8249  139.4996  171.3788 F       1  UNL1       -0.2041
     27 C         139.9808  141.5386  169.7764 C.ar    1  UNL1        0.0593
     28 C         140.6489  142.2451  168.6343 C.ar    1  UNL1        0.1453
     29 F         140.1368  143.5777  168.1740 F       1  UNL1       -0.2040
     30 C         142.1621  141.4430  160.1716 C.2     1  UNL1        0.2252
     31 O         143.3534  141.2411  161.0604 O.2     1  UNL1       -0.2750
     32 N         141.4630  140.2582  159.5738 N.am    1  UNL1       -0.3025
     33 H         140.6811  140.3907  158.9904 H       1  UNL1        0.1497
     34 C         141.9552  138.8714  159.8647 C.3     1  UNL1        0.0921
     35 C         142.7885  137.6265  159.7882 C.3     1  UNL1        0.0258
     36 C         143.1081  138.7982  158.9077 C.3     1  UNL1        0.0258
     37 C         140.9734  138.4631  160.9226 C.ar    1  UNL1        0.0749
     38 C         141.4622  137.8690  162.2103 C.ar    1  UNL1        0.0163
     39 C         140.4804  137.4606  163.2683 C.ar    1  UNL1        0.0029
     40 C         139.0098  137.6463  163.0386 C.ar    1  UNL1        0.0207
     41 C         138.5210  138.2404  161.7509 C.ar    1  UNL1        0.0985
     42 N         139.5028  138.6488  160.6929 N.ar    1  UNL1       -0.2466
@<TRIPOS>BOND
     1    13    14    2
     2    14    15   am
     3     1    15    1
     4     1     2    1
     5     2     3    1
     6     3     4    1
     7     4     7    1
     8     7     8    1
     9     8     9    1
    10     9    10    1
    11    10    11    1
    12    11    12    1
    13     4     5    1
    14     5     6    1
    15     6    30    1
    16    30    31    2
    17    30    32   am
    18    32    34    1
    19    34    37    1
    20    37    38   ar
    21    38    39   ar
    22    39    40   ar
    23    40    41   ar
    24    41    42   ar
    25    34    35    1
    26    35    36    1
    27    14    17    1
    28    17    18   ar
    29    18    19   ar
    30    19    22    1
    31    22    23   ar
    32    23    24   ar
    33    24    25   ar
    34    25    26    1
    35    25    27   ar
    36    27    28   ar
    37    28    29    1
    38    19    20   ar
    39    20    21   ar
    40     6     1    1
    41    36    34    1
    42    21    17   ar
    43    12     7    1
    44    42    37   ar
    45    28    22   ar
    46    15    16    1
    47    32    33    1
@<TRIPOS>MOLECULE
*****
 42 47 0 0 0
SMALL
GASTEIGER

@<TRIPOS>ATOM
      1 C         142.6158  139.7560  161.2424 C.3     1  UNL1        0.0832
      2 C         142.8627  138.2785  161.1660 C.3     1  UNL1        0.0374
      3 C         142.9271  137.5969  159.8313 C.3     1  UNL1        0.0738
      4 N         142.7446  138.3929  158.5731 N.3     1  UNL1       -0.2734
      5 C         142.4977  139.8704  158.6495 C.3     1  UNL1        0.0828
      6 C         142.4333  140.5520  159.9842 C.3     1  UNL1        0.1103
      7 C         142.8090  137.7113  157.2384 C.3     1  UNL1        0.0575
      8 C         142.8061  138.5262  155.9792 C.3     1  UNL1        0.0160
      9 C         142.8705  137.8446  154.6445 C.3     1  UNL1        0.0014
     10 C         142.9378  136.3480  154.5691 C.3     1  UNL1        0.0001
     11 C         142.9406  135.5330  155.8285 C.3     1  UNL1        0.0014
     12 C         142.8762  136.2147  157.1631 C.3     1  UNL1        0.0160
     13 O         145.0949  140.9490  162.4385 O.2     1  UNL1       -0.2684
     14 C         143.7909  141.0342  163.1751 C.2     1  UNL1        0.2669
     15 N         142.5514  140.4377  162.5771 N.am    1  UNL1       -0.3006
     16 H         141.6956  140.4935  163.0605 H       1  UNL1        0.1497
     17 C         143.7266  141.7158  164.5097 C.ar    1  UNL1        0.1761
     18 C         142.7833  141.3801  165.6266 C.ar    1  UNL1        0.0673
     19 C         143.0679  142.3096  166.7690 C.ar    1  UNL1        0.1792
     20 O         144.1872  143.2198  166.3580 O.2     1  UNL1       -0.3532
     21 N         144.5943  142.8528  164.9618 N.ar    1  UNL1       -0.0723
     22 C         142.3580  142.3260  168.0902 C.ar    1  UNL1        0.0648
     23 C         140.8650  142.1903  168.1412 C.ar    1  UNL1        0.0077
     24 C         140.1551  142.2068  169.4625 C.ar    1  UNL1        0.0299
     25 C         140.9382  142.3589  170.7327 C.ar    1  UNL1        0.1424
     26 F         140.2283  142.3754  172.0540 F       1  UNL1       -0.2041
     27 C         142.4311  142.4946  170.6818 C.ar    1  UNL1        0.0593
     28 C         143.1410  142.4782  169.3605 C.ar    1  UNL1        0.1453
     29 F         144.6340  142.6139  169.3095 F       1  UNL1       -0.2040
     30 C         142.1864  142.0296  160.0606 C.2     1  UNL1        0.2252
     31 O         143.3422  142.9854  160.0368 O.2     1  UNL1       -0.2750
     32 N         140.7836  142.5514  160.1609 N.am    1  UNL1       -0.3025
     33 H         140.0250  141.9241  160.1765 H       1  UNL1        0.1497
     34 C         140.5367  144.0289  160.2374 C.3     1  UNL1        0.0921
     35 C         140.4017  145.4596  159.8073 C.3     1  UNL1        0.0258
     36 C         140.7734  144.4070  158.8052 C.3     1  UNL1        0.0258
     37 C         140.2142  144.1640  161.6960 C.ar    1  UNL1        0.0749
     38 C         141.3200  144.1931  162.7091 C.ar    1  UNL1        0.0163
     39 C         140.9975  144.3281  164.1678 C.ar    1  UNL1        0.0029
     40 C         139.5692  144.4341  164.6134 C.ar    1  UNL1        0.0207
     41 C         138.4634  144.4050  163.6004 C.ar    1  UNL1        0.0985
     42 N         138.7858  144.2700  162.1417 N.ar    1  UNL1       -0.2466
@<TRIPOS>BOND
     1    13    14    2
     2    14    15   am
     3     1    15    1
     4     1     2    1
     5     2     3    1
     6     3     4    1
     7     4     7    1
     8     7     8    1
     9     8     9    1
    10     9    10    1
    11    10    11    1
    12    11    12    1
    13     4     5    1
    14     5     6    1
    15     6    30    1
    16    30    31    2
    17    30    32   am
    18    32    34    1
    19    34    37    1
    20    37    38   ar
    21    38    39   ar
    22    39    40   ar
    23    40    41   ar
    24    41    42   ar
    25    34    35    1
    26    35    36    1
    27    14    17    1
    28    17    18   ar
    29    18    19   ar
    30    19    22    1
    31    22    23   ar
    32    23    24   ar
    33    24    25   ar
    34    25    26    1
    35    25    27   ar
    36    27    28   ar
    37    28    29    1
    38    19    20   ar
    39    20    21   ar
    40     6     1    1
    41    36    34    1
    42    21    17   ar
    43    12     7    1
    44    42    37   ar
    45    28    22   ar
    46    15    16    1
    47    32    33    1
@<TRIPOS>MOLECULE
*****
 42 47 0 0 0
SMALL
GASTEIGER

@<TRIPOS>ATOM
      1 C         141.0225  138.1728  157.1014 C.3     1  UNL1        0.0832
      2 C         140.3832  137.6558  155.8469 C.3     1  UNL1        0.0374
      3 C         140.8552  136.3675  155.2407 C.3     1  UNL1        0.0738
      4 N         141.9663  135.5962  155.8891 N.3     1  UNL1       -0.2734
      5 C         142.6055  136.1132  157.1437 C.3     1  UNL1        0.0828
      6 C         142.1336  137.4015  157.7498 C.3     1  UNL1        0.1103
      7 C         142.4382  134.3078  155.2828 C.3     1  UNL1        0.0575
      8 C         141.9281  133.8802  153.9387 C.3     1  UNL1        0.0160
      9 C         142.4000  132.5918  153.3324 C.3     1  UNL1        0.0014
     10 C         143.3821  131.7311  154.0704 C.3     1  UNL1        0.0001
     11 C         143.8922  132.1587  155.4147 C.3     1  UNL1        0.0014
     12 C         143.4203  133.4470  156.0209 C.3     1  UNL1        0.0160
     13 O         139.2471  138.1311  159.5193 O.2     1  UNL1       -0.2684
     14 C         139.6628  139.4403  158.9166 C.2     1  UNL1        0.2669
     15 N         140.5505  139.4612  157.7077 N.am    1  UNL1       -0.3006
     16 H         140.8234  140.3204  157.3121 H       1  UNL1        0.1497
     17 C         139.1909  140.7286  159.5229 C.ar    1  UNL1        0.1761
     18 C         139.3086  141.1190  160.9664 C.ar    1  UNL1        0.0673
     19 C         138.7089  142.4844  161.1277 C.ar    1  UNL1        0.1792
     20 O         138.2205  142.9378  159.7838 O.2     1  UNL1       -0.3532
     21 N         138.5185  141.8527  158.7920 N.ar    1  UNL1       -0.0723
     22 C         138.6141  143.2601  162.4081 C.ar    1  UNL1        0.0648
     23 C         139.4795  144.4668  162.6197 C.ar    1  UNL1        0.0077
     24 C         139.3848  145.2426  163.9000 C.ar    1  UNL1        0.0299
     25 C         138.4246  144.8115  164.9687 C.ar    1  UNL1        0.1424
     26 F         138.3298  145.5872  166.2490 F       1  UNL1       -0.2041
     27 C         137.5592  143.6048  164.7571 C.ar    1  UNL1        0.0593
     28 C         137.6539  142.8291  163.4768 C.ar    1  UNL1        0.1453
     29 F         136.7885  141.6223  163.2652 F       1  UNL1       -0.2040
     30 C         142.7729  137.9186  159.0045 C.2     1  UNL1        0.2252
     31 O         143.8538  138.9553  158.9232 O.2     1  UNL1       -0.2750
     32 N         142.3311  137.3989  160.3404 N.am    1  UNL1       -0.3025
     33 H         141.6216  136.7184  160.3938 H       1  UNL1        0.1497
     34 C         142.9702  137.9159  161.5951 C.3     1  UNL1        0.0921
     35 C         144.0350  138.3147  162.5734 C.3     1  UNL1        0.0258
     36 C         144.4176  137.7551  161.2353 C.3     1  UNL1        0.0258
     37 C         141.7450  138.2562  162.3905 C.ar    1  UNL1        0.0749
     38 C         141.7337  139.4738  163.2665 C.ar    1  UNL1        0.0163
     39 C         140.5083  139.8142  164.0620 C.ar    1  UNL1        0.0029
     40 C         139.2943  138.9369  163.9814 C.ar    1  UNL1        0.0207
     41 C         139.3055  137.7194  163.1054 C.ar    1  UNL1        0.0985
     42 N         140.5308  137.3790  162.3099 N.ar    1  UNL1       -0.2466
@<TRIPOS>BOND
     1    13    14    2
     2    14    15   am
     3     1    15    1
     4     1     2    1
     5     2     3    1
     6     3     4    1
     7     4     7    1
     8     7     8    1
     9     8     9    1
    10     9    10    1
    11    10    11    1
    12    11    12    1
    13     4     5    1
    14     5     6    1
    15     6    30    1
    16    30    31    2
    17    30    32   am
    18    32    34    1
    19    34    37    1
    20    37    38   ar
    21    38    39   ar
    22    39    40   ar
    23    40    41   ar
    24    41    42   ar
    25    34    35    1
    26    35    36    1
    27    14    17    1
    28    17    18   ar
    29    18    19   ar
    30    19    22    1
    31    22    23   ar
    32    23    24   ar
    33    24    25   ar
    34    25    26    1
    35    25    27   ar
    36    27    28   ar
    37    28    29    1
    38    19    20   ar
    39    20    21   ar
    40     6     1    1
    41    36    34    1
    42    21    17   ar
    43    12     7    1
    44    42    37   ar
    45    28    22   ar
    46    15    16    1
    47    32    33    1
@<TRIPOS>MOLECULE
*****
 42 47 0 0 0
SMALL
GASTEIGER

@<TRIPOS>ATOM
      1 C         138.9689  141.0909  160.1804 C.3     1  UNL1        0.0832
      2 C         138.0063  140.3339  159.3142 C.3     1  UNL1        0.0374
      3 C         137.5461  140.9217  158.0132 C.3     1  UNL1        0.0738
      4 N         138.0484  142.2666  157.5785 N.3     1  UNL1       -0.2734
      5 C         139.0110  143.0236  158.4446 C.3     1  UNL1        0.0828
      6 C         139.4712  142.4358  159.7456 C.3     1  UNL1        0.1103
      7 C         137.5881  142.8544  156.2774 C.3     1  UNL1        0.0575
      8 C         136.6702  142.0733  155.3845 C.3     1  UNL1        0.0160
      9 C         136.2099  142.6611  154.0835 C.3     1  UNL1        0.0014
     10 C         136.6675  144.0301  153.6754 C.3     1  UNL1        0.0001
     11 C         137.5855  144.8112  154.5683 C.3     1  UNL1        0.0014
     12 C         138.0457  144.2234  155.8693 C.3     1  UNL1        0.0160
     13 O         137.1743  141.1756  162.5829 O.2     1  UNL1       -0.2684
     14 C         138.5319  140.5454  162.6827 C.2     1  UNL1        0.2669
     15 N         139.4292  140.5031  161.4815 N.am    1  UNL1       -0.3006
     16 H         140.3202  140.0895  161.5469 H       1  UNL1        0.1497
     17 C         138.9921  139.9576  163.9837 C.ar    1  UNL1        0.1761
     18 C         139.5371  140.7228  165.1532 C.ar    1  UNL1        0.0673
     19 C         139.8700  139.7395  166.2359 C.ar    1  UNL1        0.1792
     20 O         139.5307  138.3667  165.7357 O.2     1  UNL1       -0.3532
     21 N         138.9882  138.5015  164.3437 N.ar    1  UNL1       -0.0723
     22 C         140.4418  140.0709  167.5825 C.ar    1  UNL1        0.0648
     23 C         139.6403  140.8792  168.5594 C.ar    1  UNL1        0.0077
     24 C         140.2120  141.2106  169.9059 C.ar    1  UNL1        0.0299
     25 C         141.5853  140.7337  170.2756 C.ar    1  UNL1        0.1424
     26 F         142.1571  141.0650  171.6222 F       1  UNL1       -0.2041
     27 C         142.3867  139.9254  169.2988 C.ar    1  UNL1        0.0593
     28 C         141.8150  139.5940  167.9522 C.ar    1  UNL1        0.1453
     29 F         142.6165  138.7857  166.9753 F       1  UNL1       -0.2040
     30 C         140.4338  143.1928  160.6119 C.2     1  UNL1        0.2252
     31 O         141.7186  143.7072  160.0334 O.2     1  UNL1       -0.2750
     32 N         140.1116  143.4353  162.0567 N.am    1  UNL1       -0.3025
     33 H         139.2684  143.0977  162.4363 H       1  UNL1        0.1497
     34 C         141.0742  144.1923  162.9229 C.3     1  UNL1        0.0921
     35 C         141.7704  145.3461  163.5818 C.3     1  UNL1        0.0258
     36 C         140.6415  145.5977  162.6266 C.3     1  UNL1        0.0258
     37 C         141.8411  143.0499  163.5201 C.ar    1  UNL1        0.0749
     38 C         142.4219  143.1750  164.8974 C.ar    1  UNL1        0.0163
     39 C         143.1889  142.0326  165.4947 C.ar    1  UNL1        0.0029
     40 C         143.3751  140.7651  164.7145 C.ar    1  UNL1        0.0207
     41 C         142.7943  140.6400  163.3372 C.ar    1  UNL1        0.0985
     42 N         142.0273  141.7823  162.7399 N.ar    1  UNL1       -0.2466
@<TRIPOS>BOND
     1    13    14    2
     2    14    15   am
     3     1    15    1
     4     1     2    1
     5     2     3    1
     6     3     4    1
     7     4     7    1
     8     7     8    1
     9     8     9    1
    10     9    10    1
    11    10    11    1
    12    11    12    1
    13     4     5    1
    14     5     6    1
    15     6    30    1
    16    30    31    2
    17    30    32   am
    18    32    34    1
    19    34    37    1
    20    37    38   ar
    21    38    39   ar
    22    39    40   ar
    23    40    41   ar
    24    41    42   ar
    25    34    35    1
    26    35    36    1
    27    14    17    1
    28    17    18   ar
    29    18    19   ar
    30    19    22    1
    31    22    23   ar
    32    23    24   ar
    33    24    25   ar
    34    25    26    1
    35    25    27   ar
    36    27    28   ar
    37    28    29    1
    38    19    20   ar
    39    20    21   ar
    40     6     1    1
    41    36    34    1
    42    21    17   ar
    43    12     7    1
    44    42    37   ar
    45    28    22   ar
    46    15    16    1
    47    32    33    1
