@<TRIPOS>MOLECULE
*****
 32 36 0 0 0
SMALL
GASTEIGER

@<TRIPOS>ATOM
      1 N         142.7731  143.1339  164.9253 N.3     1  UNL1       -0.2710
      2 C         143.8719  143.1523  163.9043 C.3     1  UNL1        0.0728
      3 C         143.5799  143.5769  162.4957 C.3     1  UNL1        0.0298
      4 C         142.1890  143.9833  162.1080 C.3     1  UNL1        0.1147
      5 C         141.0902  143.9650  163.1289 C.3     1  UNL1        0.0298
      6 C         141.3823  143.5403  164.5375 C.3     1  UNL1        0.0728
      7 C         141.8969  144.4080  160.6993 C.2     1  UNL1        0.3507
      8 N         142.6570  143.9881  159.4762 N.2     1  UNL1       -0.0350
      9 C         142.0233  144.6477  158.2874 C.2     1  UNL1        0.2326
     10 C         142.3462  144.6017  156.8233 C.2     1  UNL1        0.0609
     11 C         141.5173  145.3834  155.8475 C.2     1  UNL1        0.0540
     12 CL        141.8402  145.3374  154.3834 Cl      1  UNL1       -0.0828
     13 C         140.3656  146.2110  156.3359 C.2     1  UNL1       -0.0249
     14 C         139.5368  146.9927  155.3602 C.3     1  UNL1        0.0277
     15 C         140.0427  146.2571  157.8000 C.3     1  UNL1        0.1006
     16 C         140.8715  145.4754  158.7758 C.2     1  UNL1        0.2171
     17 N         140.7935  145.3273  160.2664 N.2     1  UNL1       -0.0389
     18 C         143.0652  142.7092  166.3340 C.3     1  UNL1        0.0970
     19 C         142.9516  141.2644  166.7205 C.3     1  UNL1        0.1265
     20 C         139.1377  139.3922  165.2376 C.ar    1  UNL1        0.1594
     21 C         138.0860  138.9578  166.2150 C.ar    1  UNL1        0.1374
     22 N         138.3057  139.1474  167.6867 N.ar    1  UNL1       -0.2206
     23 C         139.5770  139.7714  168.1810 C.ar    1  UNL1        0.1788
     24 N         139.7966  139.9610  169.6526 N.ar    1  UNL1       -0.2188
     25 C         141.0679  140.5850  170.1469 C.ar    1  UNL1        0.1612
     26 C         142.1196  141.0195  169.1695 C.ar    1  UNL1        0.2804
     27 O         143.3909  141.6435  169.6638 O.2     1  UNL1       -0.2653
     28 N         141.9000  140.8299  167.6979 N.ar    1  UNL1       -0.2900
     29 C         140.6286  140.2058  167.2036 C.ar    1  UNL1        0.1016
     30 C         140.4089  140.0163  165.7319 C.ar    1  UNL1        0.0589
     31 C         138.7877  137.8201  163.1991 C.3     1  UNL1        0.2525
     32 O         138.9180  139.2027  163.7660 O.3     1  UNL1       -0.4698
@<TRIPOS>BOND
     1    31    32    1
     2    32    20    1
     3    20    21   ar
     4    21    22   ar
     5    22    23   ar
     6    23    24   ar
     7    24    25   ar
     8    25    26   ar
     9    26    27    2
    10    26    28   ar
    11    28    19    1
    12    19    18    1
    13    18     1    1
    14     1     2    1
    15     2     3    1
    16     3     4    1
    17     4     7    1
    18     7     8    2
    19     8     9    1
    20     9    10    2
    21    10    11    1
    22    11    12    1
    23    11    13    2
    24    13    14    1
    25    13    15    1
    26    15    16    1
    27    16    17    2
    28     4     5    1
    29     5     6    1
    30    28    29   ar
    31    29    30   ar
    32    30    20   ar
    33    29    23   ar
    34     6     1    1
    35    17     7    1
    36    16     9    1
@<TRIPOS>MOLECULE
*****
 32 36 0 0 0
SMALL
GASTEIGER

@<TRIPOS>ATOM
      1 N         140.4391  143.2318  165.0587 N.3     1  UNL1       -0.2710
      2 C         139.2211  143.5907  164.2601 C.3     1  UNL1        0.0728
      3 C         139.3584  143.9868  162.8199 C.3     1  UNL1        0.0298
      4 C         140.7137  144.0241  162.1783 C.3     1  UNL1        0.1147
      5 C         141.9317  143.6652  162.9769 C.3     1  UNL1        0.0298
      6 C         141.7944  143.2691  164.4171 C.3     1  UNL1        0.0728
      7 C         140.8511  144.4203  160.7381 C.2     1  UNL1        0.3507
      8 N         139.9847  145.4028  160.0074 N.2     1  UNL1       -0.0350
      9 C         140.4771  145.4932  158.5934 C.2     1  UNL1        0.2326
     10 C         140.0107  146.2996  157.4178 C.2     1  UNL1        0.0609
     11 C         140.7152  146.1793  156.0989 C.2     1  UNL1        0.0540
     12 CL        140.2487  146.9857  154.9232 Cl      1  UNL1       -0.0828
     13 C         141.8859  145.2527  155.9557 C.2     1  UNL1       -0.0249
     14 C         142.5903  145.1324  154.6369 C.3     1  UNL1        0.0277
     15 C         142.3524  144.4463  157.1314 C.3     1  UNL1        0.1006
     16 C         141.6480  144.5665  158.4502 C.2     1  UNL1        0.2171
     17 N         141.8791  143.9034  159.7757 N.2     1  UNL1       -0.0389
     18 C         140.3017  142.8356  166.4989 C.3     1  UNL1        0.0970
     19 C         139.9984  141.4115  166.8594 C.3     1  UNL1        0.1265
     20 C         138.9779  139.0037  163.1973 C.ar    1  UNL1        0.1594
     21 C         139.8920  137.9043  162.7438 C.ar    1  UNL1        0.1374
     22 N         141.1463  137.6075  163.5111 N.ar    1  UNL1       -0.2206
     23 C         141.4864  138.4101  164.7318 C.ar    1  UNL1        0.1788
     24 N         142.7407  138.1132  165.4990 N.ar    1  UNL1       -0.2188
     25 C         143.0809  138.9158  166.7197 C.ar    1  UNL1        0.1612
     26 C         142.1668  140.0153  167.1732 C.ar    1  UNL1        0.2804
     27 O         142.5070  140.8178  168.3939 O.2     1  UNL1       -0.2653
     28 N         140.9125  140.3121  166.4059 N.ar    1  UNL1       -0.2900
     29 C         140.5723  139.5095  165.1852 C.ar    1  UNL1        0.1016
     30 C         139.3180  139.8063  164.4180 C.ar    1  UNL1        0.0589
     31 C         137.7872  139.5327  160.9495 C.3     1  UNL1        0.2525
     32 O         137.7236  139.3006  162.4301 O.3     1  UNL1       -0.4698
@<TRIPOS>BOND
     1    31    32    1
     2    32    20    1
     3    20    21   ar
     4    21    22   ar
     5    22    23   ar
     6    23    24   ar
     7    24    25   ar
     8    25    26   ar
     9    26    27    2
    10    26    28   ar
    11    28    19    1
    12    19    18    1
    13    18     1    1
    14     1     2    1
    15     2     3    1
    16     3     4    1
    17     4     7    1
    18     7     8    2
    19     8     9    1
    20     9    10    2
    21    10    11    1
    22    11    12    1
    23    11    13    2
    24    13    14    1
    25    13    15    1
    26    15    16    1
    27    16    17    2
    28     4     5    1
    29     5     6    1
    30    28    29   ar
    31    29    30   ar
    32    30    20   ar
    33    29    23   ar
    34     6     1    1
    35    17     7    1
    36    16     9    1
@<TRIPOS>MOLECULE
*****
 32 36 0 0 0
SMALL
GASTEIGER

@<TRIPOS>ATOM
      1 N         140.6186  140.4219  158.4925 N.3     1  UNL1       -0.2710
      2 C         139.6190  139.3718  158.1075 C.3     1  UNL1        0.0728
      3 C         140.0863  138.0598  157.5508 C.3     1  UNL1        0.0298
      4 C         141.5532  137.7977  157.3790 C.3     1  UNL1        0.1147
      5 C         142.5528  138.8478  157.7640 C.3     1  UNL1        0.0298
      6 C         142.0854  140.1599  158.3207 C.3     1  UNL1        0.0728
      7 C         142.0206  136.4856  156.8223 C.2     1  UNL1        0.3507
      8 N         141.5479  135.8497  155.5486 N.2     1  UNL1       -0.0350
      9 C         142.2779  134.5501  155.3806 C.2     1  UNL1        0.2326
     10 C         142.2208  133.4974  154.3136 C.2     1  UNL1        0.0609
     11 C         143.0875  132.2775  154.4164 C.2     1  UNL1        0.0540
     12 CL        143.0304  131.2248  153.3494 Cl      1  UNL1       -0.0828
     13 C         144.0113  132.1102  155.5862 C.2     1  UNL1       -0.0249
     14 C         144.8780  130.8903  155.6890 C.3     1  UNL1        0.0277
     15 C         144.0685  133.1629  156.6533 C.3     1  UNL1        0.1006
     16 C         143.2018  134.3828  156.5505 C.2     1  UNL1        0.2171
     17 N         143.0427  135.5790  157.4415 N.2     1  UNL1       -0.0389
     18 C         140.1512  141.7341  159.0492 C.3     1  UNL1        0.0970
     19 C         140.3684  142.0538  160.4986 C.3     1  UNL1        0.1265
     20 C         141.9282  138.3100  162.4480 C.ar    1  UNL1        0.1594
     21 C         141.1134  137.6165  163.4993 C.ar    1  UNL1        0.1374
     22 N         139.7788  138.1710  163.9008 N.ar    1  UNL1       -0.2206
     23 C         139.2588  139.4189  163.2510 C.ar    1  UNL1        0.1788
     24 N         137.9242  139.9734  163.6526 N.ar    1  UNL1       -0.2188
     25 C         137.4042  141.2213  163.0028 C.ar    1  UNL1        0.1612
     26 C         138.2190  141.9149  161.9514 C.ar    1  UNL1        0.2804
     27 O         137.6990  143.1628  161.3016 O.2     1  UNL1       -0.2653
     28 N         139.5536  141.3604  161.5499 N.ar    1  UNL1       -0.2900
     29 C         140.0736  140.1124  162.1997 C.ar    1  UNL1        0.1016
     30 C         141.4082  139.5579  161.7982 C.ar    1  UNL1        0.0589
     31 C         144.1780  138.5617  161.1733 C.3     1  UNL1        0.2525
     32 O         143.2628  137.7555  162.0465 O.3     1  UNL1       -0.4698
@<TRIPOS>BOND
     1    31    32    1
     2    32    20    1
     3    20    21   ar
     4    21    22   ar
     5    22    23   ar
     6    23    24   ar
     7    24    25   ar
     8    25    26   ar
     9    26    27    2
    10    26    28   ar
    11    28    19    1
    12    19    18    1
    13    18     1    1
    14     1     2    1
    15     2     3    1
    16     3     4    1
    17     4     7    1
    18     7     8    2
    19     8     9    1
    20     9    10    2
    21    10    11    1
    22    11    12    1
    23    11    13    2
    24    13    14    1
    25    13    15    1
    26    15    16    1
    27    16    17    2
    28     4     5    1
    29     5     6    1
    30    28    29   ar
    31    29    30   ar
    32    30    20   ar
    33    29    23   ar
    34     6     1    1
    35    17     7    1
    36    16     9    1
@<TRIPOS>MOLECULE
*****
 32 36 0 0 0
SMALL
GASTEIGER

@<TRIPOS>ATOM
      1 N         144.7108  141.4246  162.8784 N.3     1  UNL1       -0.2710
      2 C         144.0783  140.0891  163.1361 C.3     1  UNL1        0.0728
      3 C         143.3881  139.3587  162.0226 C.3     1  UNL1        0.0298
      4 C         143.3304  139.9637  160.6513 C.3     1  UNL1        0.1147
      5 C         143.9629  141.2992  160.3935 C.3     1  UNL1        0.0298
      6 C         144.6531  142.0296  161.5071 C.3     1  UNL1        0.0728
      7 C         142.6402  139.2333  159.5376 C.2     1  UNL1        0.3507
      8 N         141.2602  139.5141  159.0211 N.2     1  UNL1       -0.0350
      9 C         140.9760  138.5481  157.9093 C.2     1  UNL1        0.2326
     10 C         139.7762  138.3545  157.0302 C.2     1  UNL1        0.0609
     11 C         139.7807  137.2829  155.9804 C.2     1  UNL1        0.0540
     12 CL        138.5808  137.0893  155.1013 Cl      1  UNL1       -0.0828
     13 C         140.9850  136.4052  155.8098 C.2     1  UNL1       -0.0249
     14 C         140.9894  135.3338  154.7601 C.3     1  UNL1        0.0277
     15 C         142.1848  136.5989  156.6889 C.3     1  UNL1        0.1006
     16 C         142.1804  137.6703  157.7386 C.2     1  UNL1        0.2171
     17 N         143.2089  138.0938  158.7450 N.2     1  UNL1       -0.0389
     18 C         145.4010  142.1550  163.9921 C.3     1  UNL1        0.0970
     19 C         144.6185  143.0692  164.8876 C.3     1  UNL1        0.1265
     20 C         141.0714  140.9396  166.6576 C.ar    1  UNL1        0.1594
     21 C         139.6811  141.3537  166.2762 C.ar    1  UNL1        0.1374
     22 N         139.4731  142.4777  165.3050 N.ar    1  UNL1       -0.2206
     23 C         140.6554  143.1875  164.7150 C.ar    1  UNL1        0.1788
     24 N         140.4474  144.3115  163.7437 N.ar    1  UNL1       -0.2188
     25 C         141.6298  145.0214  163.1537 C.ar    1  UNL1        0.1612
     26 C         143.0202  144.6073  163.5350 C.ar    1  UNL1        0.2804
     27 O         144.2025  145.3171  162.9450 O.2     1  UNL1       -0.2653
     28 N         143.2282  143.4833  164.5063 N.ar    1  UNL1       -0.2900
     29 C         142.0457  142.7734  165.0963 C.ar    1  UNL1        0.1016
     30 C         142.2537  141.6494  166.0676 C.ar    1  UNL1        0.0589
     31 C         142.6409  139.5658  168.2065 C.3     1  UNL1        0.2525
     32 O         141.2794  139.8156  167.6289 O.3     1  UNL1       -0.4698
@<TRIPOS>BOND
     1    31    32    1
     2    32    20    1
     3    20    21   ar
     4    21    22   ar
     5    22    23   ar
     6    23    24   ar
     7    24    25   ar
     8    25    26   ar
     9    26    27    2
    10    26    28   ar
    11    28    19    1
    12    19    18    1
    13    18     1    1
    14     1     2    1
    15     2     3    1
    16     3     4    1
    17     4     7    1
    18     7     8    2
    19     8     9    1
    20     9    10    2
    21    10    11    1
    22    11    12    1
    23    11    13    2
    24    13    14    1
    25    13    15    1
    26    15    16    1
    27    16    17    2
    28     4     5    1
    29     5     6    1
    30    28    29   ar
    31    29    30   ar
    32    30    20   ar
    33    29    23   ar
    34     6     1    1
    35    17     7    1
    36    16     9    1
@<TRIPOS>MOLECULE
*****
 32 36 0 0 0
SMALL
GASTEIGER

@<TRIPOS>ATOM
      1 N         138.1422  141.8469  162.7973 N.3     1  UNL1       -0.2710
      2 C         138.0722  142.2942  161.3672 C.3     1  UNL1        0.0728
      3 C         138.6872  141.4539  160.2876 C.3     1  UNL1        0.0298
      4 C         139.3721  140.1662  160.6380 C.3     1  UNL1        0.1147
      5 C         139.4420  139.7189  162.0681 C.3     1  UNL1        0.0298
      6 C         138.8270  140.5593  163.1477 C.3     1  UNL1        0.0728
      7 C         139.9870  139.3258  159.5584 C.2     1  UNL1        0.3507
      8 N         139.2803  138.7875  158.3498 N.2     1  UNL1       -0.0350
      9 C         140.2732  138.0051  157.5423 C.2     1  UNL1        0.2326
     10 C         140.1456  137.2499  156.2526 C.2     1  UNL1        0.0609
     11 C         141.3385  136.5495  155.6724 C.2     1  UNL1        0.0540
     12 CL        141.2109  135.7943  154.3827 Cl      1  UNL1       -0.0828
     13 C         142.6589  136.6044  156.3819 C.2     1  UNL1       -0.0249
     14 C         143.8517  135.9041  155.8017 C.3     1  UNL1        0.0277
     15 C         142.7865  137.3596  157.6716 C.3     1  UNL1        0.1006
     16 C         141.5937  138.0600  158.2518 C.2     1  UNL1        0.2171
     17 N         141.4168  138.8762  159.4978 N.2     1  UNL1       -0.0389
     18 C         137.5272  142.6873  163.8769 C.3     1  UNL1        0.0970
     19 C         138.3271  143.7777  164.5258 C.3     1  UNL1        0.1265
     20 C         141.9162  142.0117  166.5873 C.ar    1  UNL1        0.1594
     21 C         143.2963  142.3262  166.0911 C.ar    1  UNL1        0.1374
     22 N         143.4801  143.2294  164.9077 N.ar    1  UNL1       -0.2206
     23 C         142.2838  143.8181  164.2205 C.ar    1  UNL1        0.1788
     24 N         142.4676  144.7213  163.0371 N.ar    1  UNL1       -0.2188
     25 C         141.2713  145.3100  162.3499 C.ar    1  UNL1        0.1612
     26 C         139.8911  144.9955  162.8462 C.ar    1  UNL1        0.2804
     27 O         138.6947  145.5841  162.1590 O.2     1  UNL1       -0.2653
     28 N         139.7073  144.0923  164.0296 N.ar    1  UNL1       -0.2900
     29 C         140.9037  143.5036  164.7167 C.ar    1  UNL1        0.1016
     30 C         140.7199  142.6004  165.9001 C.ar    1  UNL1        0.0589
     31 C         142.4079  139.7697  167.8045 C.3     1  UNL1        0.2525
     32 O         141.7324  141.1085  167.7707 O.3     1  UNL1       -0.4698
@<TRIPOS>BOND
     1    31    32    1
     2    32    20    1
     3    20    21   ar
     4    21    22   ar
     5    22    23   ar
     6    23    24   ar
     7    24    25   ar
     8    25    26   ar
     9    26    27    2
    10    26    28   ar
    11    28    19    1
    12    19    18    1
    13    18     1    1
    14     1     2    1
    15     2     3    1
    16     3     4    1
    17     4     7    1
    18     7     8    2
    19     8     9    1
    20     9    10    2
    21    10    11    1
    22    11    12    1
    23    11    13    2
    24    13    14    1
    25    13    15    1
    26    15    16    1
    27    16    17    2
    28     4     5    1
    29     5     6    1
    30    28    29   ar
    31    29    30   ar
    32    30    20   ar
    33    29    23   ar
    34     6     1    1
    35    17     7    1
    36    16     9    1
@<TRIPOS>MOLECULE
*****
 32 36 0 0 0
SMALL
GASTEIGER

@<TRIPOS>ATOM
      1 N         142.2176  140.3982  158.7201 N.3     1  UNL1       -0.2710
      2 C         142.4771  139.2046  159.5907 C.3     1  UNL1        0.0728
      3 C         142.5935  137.8405  158.9780 C.3     1  UNL1        0.0298
      4 C         142.4504  137.6699  157.4946 C.3     1  UNL1        0.1147
      5 C         142.1908  138.8635  156.6240 C.3     1  UNL1        0.0298
      6 C         142.0744  140.2277  157.2368 C.3     1  UNL1        0.0728
      7 C         142.5668  136.3057  156.8818 C.2     1  UNL1        0.3507
      8 N         141.5598  135.6554  155.9801 N.2     1  UNL1       -0.0350
      9 C         142.0813  134.3001  155.6041 C.2     1  UNL1        0.2326
     10 C         141.5175  133.2124  154.7388 C.2     1  UNL1        0.0609
     11 C         142.2830  131.9373  154.5428 C.2     1  UNL1        0.0540
     12 CL        141.7192  130.8495  153.6774 Cl      1  UNL1       -0.0828
     13 C         143.6122  131.7501  155.2121 C.2     1  UNL1       -0.0249
     14 C         144.3777  130.4751  155.0160 C.3     1  UNL1        0.0277
     15 C         144.1760  132.8379  156.0774 C.3     1  UNL1        0.1006
     16 C         143.4106  134.1129  156.2735 C.2     1  UNL1        0.2171
     17 N         143.7106  135.3524  157.0631 N.2     1  UNL1       -0.0389
     18 C         142.1012  141.7624  159.3330 C.3     1  UNL1        0.0970
     19 C         140.9064  142.6190  159.0350 C.3     1  UNL1        0.1265
     20 C         137.9120  140.7372  161.8175 C.ar    1  UNL1        0.1594
     21 C         137.2844  141.5544  162.9075 C.ar    1  UNL1        0.1374
     22 N         137.6548  142.9988  163.0701 N.ar    1  UNL1       -0.2206
     23 C         138.6529  143.6260  162.1426 C.ar    1  UNL1        0.1788
     24 N         139.0234  145.0705  162.3052 N.ar    1  UNL1       -0.2188
     25 C         140.0215  145.6977  161.3777 C.ar    1  UNL1        0.1612
     26 C         140.6492  144.8806  160.2876 C.ar    1  UNL1        0.2804
     27 O         141.6473  145.5078  159.3601 O.2     1  UNL1       -0.2653
     28 N         140.2787  143.4362  160.1250 N.ar    1  UNL1       -0.2900
     29 C         139.2806  142.8089  161.0526 C.ar    1  UNL1        0.1016
     30 C         138.9101  141.3645  160.8900 C.ar    1  UNL1        0.0589
     31 C         138.3541  138.2293  162.3322 C.3     1  UNL1        0.2525
     32 O         137.5416  139.2928  161.6549 O.3     1  UNL1       -0.4698
@<TRIPOS>BOND
     1    31    32    1
     2    32    20    1
     3    20    21   ar
     4    21    22   ar
     5    22    23   ar
     6    23    24   ar
     7    24    25   ar
     8    25    26   ar
     9    26    27    2
    10    26    28   ar
    11    28    19    1
    12    19    18    1
    13    18     1    1
    14     1     2    1
    15     2     3    1
    16     3     4    1
    17     4     7    1
    18     7     8    2
    19     8     9    1
    20     9    10    2
    21    10    11    1
    22    11    12    1
    23    11    13    2
    24    13    14    1
    25    13    15    1
    26    15    16    1
    27    16    17    2
    28     4     5    1
    29     5     6    1
    30    28    29   ar
    31    29    30   ar
    32    30    20   ar
    33    29    23   ar
    34     6     1    1
    35    17     7    1
    36    16     9    1
@<TRIPOS>MOLECULE
*****
 32 36 0 0 0
SMALL
GASTEIGER

@<TRIPOS>ATOM
      1 N         143.1511  141.5144  161.0711 N.3     1  UNL1       -0.2710
      2 C         143.7519  140.1573  161.2888 C.3     1  UNL1        0.0728
      3 C         143.6208  139.1008  160.2322 C.3     1  UNL1        0.0298
      4 C         142.8889  139.4013  158.9579 C.3     1  UNL1        0.1147
      5 C         142.2881  140.7584  158.7402 C.3     1  UNL1        0.0298
      6 C         142.4191  141.8149  159.7968 C.3     1  UNL1        0.0728
      7 C         142.7578  138.3448  157.9011 C.2     1  UNL1        0.3507
      8 N         142.3848  138.5742  156.4665 N.2     1  UNL1       -0.0350
      9 C         142.3732  137.2446  155.7723 C.2     1  UNL1        0.2326
     10 C         142.0767  136.8552  154.3543 C.2     1  UNL1        0.0609
     11 C         142.1461  135.4145  153.9421 C.2     1  UNL1        0.0540
     12 CL        141.8497  135.0251  152.5241 Cl      1  UNL1       -0.0828
     13 C         142.5118  134.3634  154.9477 C.2     1  UNL1       -0.0249
     14 C         142.5812  132.9229  154.5354 C.3     1  UNL1        0.0277
     15 C         142.8083  134.7528  156.3656 C.3     1  UNL1        0.1006
     16 C         142.7389  136.1933  156.7779 C.2     1  UNL1        0.2171
     17 N         142.9766  136.8734  158.0936 N.2     1  UNL1       -0.0389
     18 C         143.2822  142.5709  162.1279 C.3     1  UNL1        0.0970
     19 C         142.2962  142.6290  163.2568 C.3     1  UNL1        0.1265
     20 C         139.1427  139.5314  162.4138 C.ar    1  UNL1        0.1594
     21 C         137.7274  139.9539  162.1524 C.ar    1  UNL1        0.1374
     22 N         137.3632  141.4089  162.1720 N.ar    1  UNL1       -0.2206
     23 C         138.4143  142.4414  162.4530 C.ar    1  UNL1        0.1788
     24 N         138.0501  143.8964  162.4726 N.ar    1  UNL1       -0.2188
     25 C         139.1013  144.9289  162.7536 C.ar    1  UNL1        0.1612
     26 C         140.5167  144.5064  163.0150 C.ar    1  UNL1        0.2804
     27 O         141.5678  145.5389  163.2960 O.2     1  UNL1       -0.2653
     28 N         140.8808  143.0514  162.9954 N.ar    1  UNL1       -0.2900
     29 C         139.8296  142.0189  162.7144 C.ar    1  UNL1        0.1016
     30 C         140.1938  140.5639  162.6948 C.ar    1  UNL1        0.0589
     31 C         140.9387  137.6594  162.5551 C.3     1  UNL1        0.2525
     32 O         139.5068  138.0764  162.3941 O.3     1  UNL1       -0.4698
@<TRIPOS>BOND
     1    31    32    1
     2    32    20    1
     3    20    21   ar
     4    21    22   ar
     5    22    23   ar
     6    23    24   ar
     7    24    25   ar
     8    25    26   ar
     9    26    27    2
    10    26    28   ar
    11    28    19    1
    12    19    18    1
    13    18     1    1
    14     1     2    1
    15     2     3    1
    16     3     4    1
    17     4     7    1
    18     7     8    2
    19     8     9    1
    20     9    10    2
    21    10    11    1
    22    11    12    1
    23    11    13    2
    24    13    14    1
    25    13    15    1
    26    15    16    1
    27    16    17    2
    28     4     5    1
    29     5     6    1
    30    28    29   ar
    31    29    30   ar
    32    30    20   ar
    33    29    23   ar
    34     6     1    1
    35    17     7    1
    36    16     9    1
@<TRIPOS>MOLECULE
*****
 32 36 0 0 0
SMALL
GASTEIGER

@<TRIPOS>ATOM
      1 N         139.6637  142.4432  164.2122 N.3     1  UNL1       -0.2710
      2 C         140.8655  142.1365  163.3687 C.3     1  UNL1        0.0728
      3 C         140.9247  142.6107  161.9468 C.3     1  UNL1        0.0298
      4 C         139.7820  143.3915  161.3685 C.3     1  UNL1        0.1147
      5 C         138.5802  143.6982  162.2121 C.3     1  UNL1        0.0298
      6 C         138.5210  143.2240  163.6339 C.3     1  UNL1        0.0728
      7 C         139.8411  143.8657  159.9467 C.2     1  UNL1        0.3507
      8 N         139.7335  143.0031  158.7243 N.2     1  UNL1       -0.0350
      9 C         139.8441  143.8901  157.5197 C.2     1  UNL1        0.2326
     10 C         139.8073  143.5953  156.0494 C.2     1  UNL1        0.0609
     11 C         139.9465  144.7115  155.0571 C.2     1  UNL1        0.0540
     12 CL        139.9097  144.4168  153.5868 Cl      1  UNL1       -0.0828
     13 C         140.1225  146.1224  155.5350 C.2     1  UNL1       -0.0249
     14 C         140.2617  147.2385  154.5426 C.3     1  UNL1        0.0277
     15 C         140.1594  146.4171  157.0053 C.3     1  UNL1        0.1006
     16 C         140.0201  145.3010  157.9976 C.2     1  UNL1        0.2171
     17 N         140.0183  145.2859  159.4976 N.2     1  UNL1       -0.0389
     18 C         139.6046  141.9689  165.6341 C.3     1  UNL1        0.0970
     19 C         139.6292  140.4999  165.9363 C.3     1  UNL1        0.1265
     20 C         140.9660  140.9371  170.2109 C.ar    1  UNL1        0.1594
     21 C         142.2377  140.2869  170.6692 C.ar    1  UNL1        0.1374
     22 N         143.0637  139.4909  169.7027 N.ar    1  UNL1       -0.2206
     23 C         142.6181  139.3452  168.2779 C.ar    1  UNL1        0.1788
     24 N         143.4442  138.5492  167.3114 N.ar    1  UNL1       -0.2188
     25 C         142.9986  138.4035  165.8865 C.ar    1  UNL1        0.1612
     26 C         141.7269  139.0537  165.4281 C.ar    1  UNL1        0.2804
     27 O         141.2813  138.9080  164.0033 O.2     1  UNL1       -0.2653
     28 N         140.9008  139.8497  166.3947 N.ar    1  UNL1       -0.2900
     29 C         141.3465  139.9954  167.8195 C.ar    1  UNL1        0.1016
     30 C         140.5204  140.7913  168.7860 C.ar    1  UNL1        0.0589
     31 C         139.6757  143.1111  170.8096 C.3     1  UNL1        0.2525
     32 O         140.1400  141.7330  171.1774 O.3     1  UNL1       -0.4698
@<TRIPOS>BOND
     1    31    32    1
     2    32    20    1
     3    20    21   ar
     4    21    22   ar
     5    22    23   ar
     6    23    24   ar
     7    24    25   ar
     8    25    26   ar
     9    26    27    2
    10    26    28   ar
    11    28    19    1
    12    19    18    1
    13    18     1    1
    14     1     2    1
    15     2     3    1
    16     3     4    1
    17     4     7    1
    18     7     8    2
    19     8     9    1
    20     9    10    2
    21    10    11    1
    22    11    12    1
    23    11    13    2
    24    13    14    1
    25    13    15    1
    26    15    16    1
    27    16    17    2
    28     4     5    1
    29     5     6    1
    30    28    29   ar
    31    29    30   ar
    32    30    20   ar
    33    29    23   ar
    34     6     1    1
    35    17     7    1
    36    16     9    1
@<TRIPOS>MOLECULE
*****
 32 36 0 0 0
SMALL
GASTEIGER

@<TRIPOS>ATOM
      1 N         141.6039  143.0635  164.4580 N.3     1  UNL1       -0.2710
      2 C         140.2543  143.1685  163.8120 C.3     1  UNL1        0.0728
      3 C         140.1348  143.6605  162.4001 C.3     1  UNL1        0.0298
      4 C         141.3650  144.0474  161.6342 C.3     1  UNL1        0.1147
      5 C         142.7147  143.9424  162.2802 C.3     1  UNL1        0.0298
      6 C         142.8342  143.4504  163.6921 C.3     1  UNL1        0.0728
      7 C         141.2456  144.5395  160.2221 C.2     1  UNL1        0.3507
      8 N         142.1659  144.1969  159.0883 N.2     1  UNL1       -0.0350
      9 C         141.6740  144.9061  157.8615 C.2     1  UNL1        0.2326
     10 C         142.1828  144.9418  156.4509 C.2     1  UNL1        0.0609
     11 C         141.4671  145.7584  155.4159 C.2     1  UNL1        0.0540
     12 CL        141.9759  145.7940  154.0053 Cl      1  UNL1       -0.0828
     13 C         140.2429  146.5393  155.7916 C.2     1  UNL1       -0.0249
     14 C         139.5273  147.3559  154.7567 C.3     1  UNL1        0.0277
     15 C         139.7341  146.5037  157.2022 C.3     1  UNL1        0.1006
     16 C         140.4497  145.6871  158.2372 C.2     1  UNL1        0.2171
     17 N         140.1849  145.4605  159.6961 N.2     1  UNL1       -0.0389
     18 C         141.7233  142.5714  165.8701 C.3     1  UNL1        0.0970
     19 C         141.8574  141.1027  166.1437 C.3     1  UNL1        0.1265
     20 C         141.1877  138.7845  162.3453 C.ar    1  UNL1        0.1594
     21 C         139.9940  137.8854  162.2160 C.ar    1  UNL1        0.1374
     22 N         139.0235  137.7592  163.3527 N.ar    1  UNL1       -0.2206
     23 C         139.2467  138.5319  164.6188 C.ar    1  UNL1        0.1788
     24 N         138.2762  138.4056  165.7555 N.ar    1  UNL1       -0.2188
     25 C         138.4994  139.1783  167.0216 C.ar    1  UNL1        0.1612
     26 C         139.6932  140.0774  167.1510 C.ar    1  UNL1        0.2804
     27 O         139.9164  140.8501  168.4171 O.2     1  UNL1       -0.2653
     28 N         140.6637  140.2037  166.0143 N.ar    1  UNL1       -0.2900
     29 C         140.4404  139.4309  164.7482 C.ar    1  UNL1        0.1016
     30 C         141.4109  139.5572  163.6114 C.ar    1  UNL1        0.0589
     31 C         142.9509  137.7178  160.7631 C.3     1  UNL1        0.2525
     32 O         142.1583  138.9108  161.2086 O.3     1  UNL1       -0.4698
@<TRIPOS>BOND
     1    31    32    1
     2    32    20    1
     3    20    21   ar
     4    21    22   ar
     5    22    23   ar
     6    23    24   ar
     7    24    25   ar
     8    25    26   ar
     9    26    27    2
    10    26    28   ar
    11    28    19    1
    12    19    18    1
    13    18     1    1
    14     1     2    1
    15     2     3    1
    16     3     4    1
    17     4     7    1
    18     7     8    2
    19     8     9    1
    20     9    10    2
    21    10    11    1
    22    11    12    1
    23    11    13    2
    24    13    14    1
    25    13    15    1
    26    15    16    1
    27    16    17    2
    28     4     5    1
    29     5     6    1
    30    28    29   ar
    31    29    30   ar
    32    30    20   ar
    33    29    23   ar
    34     6     1    1
    35    17     7    1
    36    16     9    1
