@<TRIPOS>MOLECULE
*****
 29 32 0 0 0
SMALL
GASTEIGER

@<TRIPOS>ATOM
      1 C         139.7318  139.4245  164.4019 C.ar    1  UNL1        0.1014
      2 C         139.1071  138.1221  163.9978 C.ar    1  UNL1        0.0240
      3 C         138.4271  137.9977  162.6666 C.ar    1  UNL1        0.0404
      4 C         138.3718  139.1756  161.7396 C.ar    1  UNL1        0.1639
      5 N         137.7749  139.3516  160.3747 N.ar    1  UNL1       -0.2234
      6 C         138.0308  140.7628  159.9353 C.ar    1  UNL1        0.1197
      7 C         138.7857  141.4590  161.0287 C.ar    1  UNL1        0.1036
      8 N         138.9965  140.4781  162.1438 N.ar    1  UNL1       -0.2107
      9 N         139.6765  140.6025  163.4749 N.ar    1  UNL1       -0.1638
     10 C         141.7718  139.7981  168.3956 C.ar    1  UNL1        0.1057
     11 C         142.5607  139.3948  167.1852 C.ar    1  UNL1        0.0184
     12 C         141.8807  139.2703  165.8540 C.ar    1  UNL1        0.0029
     13 C         140.4118  139.5490  165.7332 C.ar    1  UNL1        0.0194
     14 C         139.6229  139.9523  166.9435 C.ar    1  UNL1        0.0029
     15 C         140.3029  140.0768  168.2747 C.ar    1  UNL1        0.0184
     16 C         143.1318  140.0471  171.0580 C.3     1  UNL1        0.1816
     17 S         142.4518  139.9226  169.7268 S.O2    1  UNL1        0.0104
     18 O         142.9714  138.5219  169.5924 O.2     1  UNL1       -0.1686
     19 O         141.9322  141.3232  169.8612 O.2     1  UNL1       -0.1686
     20 C         139.2487  142.8856  161.0102 C.ar    1  UNL1        0.0206
     21 C         138.9261  143.7937  162.1597 C.ar    1  UNL1        0.0016
     22 C         139.3891  145.2204  162.1412 C.ar    1  UNL1        0.0014
     23 C         140.1746  145.7390  160.9734 C.ar    1  UNL1        0.0183
     24 C         140.4972  144.8308  159.8239 C.ar    1  UNL1        0.1058
     25 C         140.0343  143.4042  159.8424 C.ar    1  UNL1        0.0199
     26 S         141.2828  145.3494  158.6560 S.O2    1  UNL1        0.0104
     27 C         142.0683  145.8679  157.4880 C.3     1  UNL1        0.1816
     28 O         142.4953  144.6139  159.1450 O.2     1  UNL1       -0.1686
     29 O         140.0704  146.0847  158.1670 O.2     1  UNL1       -0.1686
@<TRIPOS>BOND
     1    16    17    1
     2    17    18    2
     3    17    19    2
     4    17    10    1
     5    10    11   ar
     6    11    12   ar
     7    12    13   ar
     8    13     1    1
     9     1     2   ar
    10     2     3   ar
    11     3     4   ar
    12     4     5   ar
    13     5     6   ar
    14     6     7   ar
    15     7    20    1
    16    20    21   ar
    17    21    22   ar
    18    22    23   ar
    19    23    24   ar
    20    24    26    1
    21    26    27    1
    22    26    28    2
    23    26    29    2
    24    24    25   ar
    25     7     8   ar
    26     8     9   ar
    27    13    14   ar
    28    14    15   ar
    29    15    10   ar
    30     9     1   ar
    31     8     4   ar
    32    25    20   ar
@<TRIPOS>MOLECULE
*****
 29 32 0 0 0
SMALL
GASTEIGER

@<TRIPOS>ATOM
      1 C         140.0079  139.0161  164.3666 C.ar    1  UNL1        0.1014
      2 C         138.9088  138.0359  164.0818 C.ar    1  UNL1        0.0240
      3 C         138.5843  137.6636  162.6654 C.ar    1  UNL1        0.0404
      4 C         139.3590  138.2714  161.5339 C.ar    1  UNL1        0.1639
      5 N         139.2665  138.0978  160.0468 N.ar    1  UNL1       -0.2234
      6 C         140.3085  138.9707  159.4126 C.ar    1  UNL1        0.1197
      7 C         141.0450  139.6837  160.5076 C.ar    1  UNL1        0.1036
      8 N         140.4581  139.2516  161.8187 N.ar    1  UNL1       -0.2107
      9 N         140.7826  139.6239  163.2350 N.ar    1  UNL1       -0.1638
     10 C         140.9814  140.1332  168.6157 C.ar    1  UNL1        0.1057
     11 C         139.5509  140.0260  168.1773 C.ar    1  UNL1        0.0184
     12 C         139.2264  139.6536  166.7609 C.ar    1  UNL1        0.0029
     13 C         140.3324  139.3884  165.7830 C.ar    1  UNL1        0.0194
     14 C         141.7629  139.4956  166.2213 C.ar    1  UNL1        0.0029
     15 C         142.0874  139.8679  167.6376 C.ar    1  UNL1        0.0184
     16 C         141.6305  140.8779  171.4483 C.3     1  UNL1        0.1816
     17 S         141.3060  140.5055  170.0320 S.O2    1  UNL1        0.0104
     18 O         142.3811  141.4300  169.5426 O.2     1  UNL1       -0.1686
     19 O         140.2309  139.5811  170.5214 O.2     1  UNL1       -0.1686
     20 C         142.1707  140.6579  160.3240 C.ar    1  UNL1        0.0206
     21 C         143.0773  140.5409  159.1347 C.ar    1  UNL1        0.0016
     22 C         144.2030  141.5151  158.9510 C.ar    1  UNL1        0.0014
     23 C         144.4221  142.6064  159.9565 C.ar    1  UNL1        0.0183
     24 C         143.5155  142.7234  161.1458 C.ar    1  UNL1        0.1058
     25 C         142.3898  141.7492  161.3295 C.ar    1  UNL1        0.0199
     26 S         143.7346  143.8147  162.1514 S.O2    1  UNL1        0.0104
     27 C         143.9537  144.9059  163.1570 C.3     1  UNL1        0.1816
     28 O         142.6245  144.6097  161.5304 O.2     1  UNL1       -0.1686
     29 O         144.8446  143.0195  162.7723 O.2     1  UNL1       -0.1686
@<TRIPOS>BOND
     1    16    17    1
     2    17    18    2
     3    17    19    2
     4    17    10    1
     5    10    11   ar
     6    11    12   ar
     7    12    13   ar
     8    13     1    1
     9     1     2   ar
    10     2     3   ar
    11     3     4   ar
    12     4     5   ar
    13     5     6   ar
    14     6     7   ar
    15     7    20    1
    16    20    21   ar
    17    21    22   ar
    18    22    23   ar
    19    23    24   ar
    20    24    26    1
    21    26    27    1
    22    26    28    2
    23    26    29    2
    24    24    25   ar
    25     7     8   ar
    26     8     9   ar
    27    13    14   ar
    28    14    15   ar
    29    15    10   ar
    30     9     1   ar
    31     8     4   ar
    32    25    20   ar
@<TRIPOS>MOLECULE
*****
 29 32 0 0 0
SMALL
GASTEIGER

@<TRIPOS>ATOM
      1 C         140.4882  143.1071  164.8118 C.ar    1  UNL1        0.1014
      2 C         139.4513  144.1588  165.0738 C.ar    1  UNL1        0.0240
      3 C         139.0157  145.0742  163.9683 C.ar    1  UNL1        0.0404
      4 C         139.6169  144.9381  162.6009 C.ar    1  UNL1        0.1639
      5 N         139.3874  145.6910  161.3240 N.ar    1  UNL1       -0.2234
      6 C         140.2825  145.1047  160.2728 C.ar    1  UNL1        0.1197
      7 C         141.0652  143.9893  160.9001 C.ar    1  UNL1        0.1036
      8 N         140.6539  143.8864  162.3389 N.ar    1  UNL1       -0.2107
      9 N         141.0895  142.9709  163.4443 N.ar    1  UNL1       -0.1638
     10 C         141.7953  140.3604  168.1281 C.ar    1  UNL1        0.1057
     11 C         140.3697  140.3479  167.6619 C.ar    1  UNL1        0.0184
     12 C         139.9340  141.2635  166.5565 C.ar    1  UNL1        0.0029
     13 C         140.9239  142.1915  165.9172 C.ar    1  UNL1        0.0194
     14 C         142.3496  142.2040  166.3834 C.ar    1  UNL1        0.0029
     15 C         142.7853  141.2885  167.4888 C.ar    1  UNL1        0.0184
     16 C         142.6668  138.5294  170.3389 C.3     1  UNL1        0.1816
     17 S         142.2311  139.4449  169.2335 S.O2    1  UNL1        0.0104
     18 O         143.2060  138.7859  168.3034 O.2     1  UNL1       -0.1686
     19 O         141.2561  140.1039  170.1636 O.2     1  UNL1       -0.1686
     20 C         142.0809  143.1281  160.2097 C.ar    1  UNL1        0.0206
     21 C         142.7979  143.6405  158.9959 C.ar    1  UNL1        0.0016
     22 C         143.8136  142.7793  158.3055 C.ar    1  UNL1        0.0014
     23 C         144.1125  141.4057  158.8289 C.ar    1  UNL1        0.0183
     24 C         143.3955  140.8934  160.0428 C.ar    1  UNL1        0.1058
     25 C         142.3798  141.7546  160.7332 C.ar    1  UNL1        0.0199
     26 S         143.6943  139.5198  160.5663 S.O2    1  UNL1        0.0104
     27 C         143.9931  138.1462  161.0898 C.3     1  UNL1        0.1816
     28 O         143.6555  140.0464  161.9703 O.2     1  UNL1       -0.1686
     29 O         143.7331  138.9932  159.1624 O.2     1  UNL1       -0.1686
@<TRIPOS>BOND
     1    16    17    1
     2    17    18    2
     3    17    19    2
     4    17    10    1
     5    10    11   ar
     6    11    12   ar
     7    12    13   ar
     8    13     1    1
     9     1     2   ar
    10     2     3   ar
    11     3     4   ar
    12     4     5   ar
    13     5     6   ar
    14     6     7   ar
    15     7    20    1
    16    20    21   ar
    17    21    22   ar
    18    22    23   ar
    19    23    24   ar
    20    24    26    1
    21    26    27    1
    22    26    28    2
    23    26    29    2
    24    24    25   ar
    25     7     8   ar
    26     8     9   ar
    27    13    14   ar
    28    14    15   ar
    29    15    10   ar
    30     9     1   ar
    31     8     4   ar
    32    25    20   ar
@<TRIPOS>MOLECULE
*****
 29 32 0 0 0
SMALL
GASTEIGER

@<TRIPOS>ATOM
      1 C         139.6496  139.3022  164.6184 C.ar    1  UNL1        0.1014
      2 C         139.1363  137.9452  164.2376 C.ar    1  UNL1        0.0240
      3 C         138.8382  137.6320  162.8013 C.ar    1  UNL1        0.0404
      4 C         139.0534  138.6759  161.7458 C.ar    1  UNL1        0.1639
      5 N         138.8492  138.6577  160.2598 N.ar    1  UNL1       -0.2234
      6 C         139.2362  140.0035  159.7223 C.ar    1  UNL1        0.1197
      7 C         139.6796  140.8534  160.8761 C.ar    1  UNL1        0.1036
      8 N         139.5666  140.0329  162.1266 N.ar    1  UNL1       -0.2107
      9 N         139.8647  140.3460  163.5629 N.ar    1  UNL1       -0.1638
     10 C         140.5440  140.2418  168.9275 C.ar    1  UNL1        0.1057
     11 C         139.1481  139.8823  168.5123 C.ar    1  UNL1        0.0184
     12 C         138.8500  139.5691  167.0760 C.ar    1  UNL1        0.0029
     13 C         139.9477  139.6154  166.0548 C.ar    1  UNL1        0.0194
     14 C         141.3435  139.9749  166.4699 C.ar    1  UNL1        0.0029
     15 C         141.6417  140.2881  167.9062 C.ar    1  UNL1        0.0184
     16 C         141.1403  140.8682  171.8000 C.3     1  UNL1        0.1816
     17 S         140.8421  140.5550  170.3637 S.O2    1  UNL1        0.0104
     18 O         142.1180  141.2277  169.9522 O.2     1  UNL1       -0.1686
     19 O         139.5662  139.8822  170.7753 O.2     1  UNL1       -0.1686
     20 C         140.1529  142.2744  160.7937 C.ar    1  UNL1        0.0206
     21 C         139.5931  143.1919  159.7474 C.ar    1  UNL1        0.0016
     22 C         140.0664  144.6129  159.6650 C.ar    1  UNL1        0.0014
     23 C         141.0995  145.1164  160.6289 C.ar    1  UNL1        0.0183
     24 C         141.6592  144.1989  161.6753 C.ar    1  UNL1        0.1058
     25 C         141.1859  142.7779  161.7576 C.ar    1  UNL1        0.0199
     26 S         142.6924  144.7024  162.6393 S.O2    1  UNL1        0.0104
     27 C         143.7254  145.2059  163.6033 C.3     1  UNL1        0.1816
     28 O         143.7650  144.0111  161.8508 O.2     1  UNL1       -0.1686
     29 O         141.6198  145.3936  163.4277 O.2     1  UNL1       -0.1686
@<TRIPOS>BOND
     1    16    17    1
     2    17    18    2
     3    17    19    2
     4    17    10    1
     5    10    11   ar
     6    11    12   ar
     7    12    13   ar
     8    13     1    1
     9     1     2   ar
    10     2     3   ar
    11     3     4   ar
    12     4     5   ar
    13     5     6   ar
    14     6     7   ar
    15     7    20    1
    16    20    21   ar
    17    21    22   ar
    18    22    23   ar
    19    23    24   ar
    20    24    26    1
    21    26    27    1
    22    26    28    2
    23    26    29    2
    24    24    25   ar
    25     7     8   ar
    26     8     9   ar
    27    13    14   ar
    28    14    15   ar
    29    15    10   ar
    30     9     1   ar
    31     8     4   ar
    32    25    20   ar
@<TRIPOS>MOLECULE
*****
 29 32 0 0 0
SMALL
GASTEIGER

@<TRIPOS>ATOM
      1 C         140.0905  139.7854  165.4880 C.ar    1  UNL1        0.1014
      2 C         139.3963  138.4875  165.7771 C.ar    1  UNL1        0.0240
      3 C         138.7457  137.7208  164.6641 C.ar    1  UNL1        0.0404
      4 C         138.7893  138.2520  163.2620 C.ar    1  UNL1        0.1639
      5 N         138.2414  137.7215  161.9702 N.ar    1  UNL1       -0.2234
      6 C         138.5970  138.6915  160.8828 C.ar    1  UNL1        0.1197
      7 C         139.3646  139.8215  161.5024 C.ar    1  UNL1        0.1036
      8 N         139.4835  139.5498  162.9728 N.ar    1  UNL1       -0.2107
      9 N         140.1341  140.3165  164.0858 N.ar    1  UNL1       -0.1638
     10 C         142.0425  142.0857  168.8270 C.ar    1  UNL1        0.1057
     11 C         140.8052  142.6220  168.1700 C.ar    1  UNL1        0.0184
     12 C         140.1546  141.8552  167.0569 C.ar    1  UNL1        0.0029
     13 C         140.7411  140.5522  166.6010 C.ar    1  UNL1        0.0194
     14 C         141.9784  140.0159  167.2580 C.ar    1  UNL1        0.0029
     15 C         142.6290  140.7826  168.3710 C.ar    1  UNL1        0.0184
     16 C         143.3438  143.6191  171.0529 C.3     1  UNL1        0.1816
     17 S         142.6931  142.8524  169.9400 S.O2    1  UNL1        0.0104
     18 O         141.3552  143.0431  170.5907 O.2     1  UNL1       -0.1686
     19 O         144.0310  142.6617  169.2892 O.2     1  UNL1       -0.1686
     20 C         139.9166  141.0138  160.7787 C.ar    1  UNL1        0.0206
     21 C         140.7116  140.8258  159.5207 C.ar    1  UNL1        0.0016
     22 C         141.2635  142.0181  158.7970 C.ar    1  UNL1        0.0014
     23 C         141.0205  143.3985  159.3313 C.ar    1  UNL1        0.0183
     24 C         140.2255  143.5865  160.5893 C.ar    1  UNL1        0.1058
     25 C         139.6736  142.3942  161.3130 C.ar    1  UNL1        0.0199
     26 S         139.9824  144.9669  161.1237 S.O2    1  UNL1        0.0104
     27 C         139.7394  146.3473  161.6580 C.3     1  UNL1        0.1816
     28 O         138.7376  144.4833  161.8068 O.2     1  UNL1       -0.1686
     29 O         141.2272  145.4504  160.4406 O.2     1  UNL1       -0.1686
@<TRIPOS>BOND
     1    16    17    1
     2    17    18    2
     3    17    19    2
     4    17    10    1
     5    10    11   ar
     6    11    12   ar
     7    12    13   ar
     8    13     1    1
     9     1     2   ar
    10     2     3   ar
    11     3     4   ar
    12     4     5   ar
    13     5     6   ar
    14     6     7   ar
    15     7    20    1
    16    20    21   ar
    17    21    22   ar
    18    22    23   ar
    19    23    24   ar
    20    24    26    1
    21    26    27    1
    22    26    28    2
    23    26    29    2
    24    24    25   ar
    25     7     8   ar
    26     8     9   ar
    27    13    14   ar
    28    14    15   ar
    29    15    10   ar
    30     9     1   ar
    31     8     4   ar
    32    25    20   ar
@<TRIPOS>MOLECULE
*****
 29 32 0 0 0
SMALL
GASTEIGER

@<TRIPOS>ATOM
      1 C         140.8213  143.6772  164.1812 C.ar    1  UNL1        0.1014
      2 C         139.7855  144.7607  164.2364 C.ar    1  UNL1        0.0240
      3 C         139.3644  145.4604  162.9782 C.ar    1  UNL1        0.0404
      4 C         139.9791  145.0766  161.6649 C.ar    1  UNL1        0.1639
      5 N         139.7652  145.5850  160.2699 N.ar    1  UNL1       -0.2234
      6 C         140.6689  144.8156  159.3526 C.ar    1  UNL1        0.1197
      7 C         141.4412  143.8318  160.1806 C.ar    1  UNL1        0.1036
      8 N         141.0149  143.9931  161.6097 N.ar    1  UNL1       -0.2107
      9 N         141.4360  143.2934  162.8678 N.ar    1  UNL1       -0.1638
     10 C         142.0848  141.5779  167.9557 C.ar    1  UNL1        0.1057
     11 C         143.0293  141.6647  166.7937 C.ar    1  UNL1        0.0184
     12 C         142.6081  142.3645  165.5355 C.ar    1  UNL1        0.0029
     13 C         141.2425  142.9774  165.4394 C.ar    1  UNL1        0.0194
     14 C         140.2979  142.8906  166.6014 C.ar    1  UNL1        0.0029
     15 C         140.7191  142.1908  167.8595 C.ar    1  UNL1        0.0184
     16 C         142.9270  140.1784  170.4720 C.3     1  UNL1        0.1816
     17 S         142.5059  140.8781  169.2139 S.O2    1  UNL1        0.0104
     18 O         142.9533  139.6958  168.4065 O.2     1  UNL1       -0.1686
     19 O         142.0585  142.0605  170.0212 O.2     1  UNL1       -0.1686
     20 C         142.4608  142.8577  159.6694 C.ar    1  UNL1        0.0206
     21 C         143.3192  143.2184  158.4933 C.ar    1  UNL1        0.0016
     22 C         144.3388  142.2443  157.9821 C.ar    1  UNL1        0.0014
     23 C         144.5002  140.9094  158.6468 C.ar    1  UNL1        0.0183
     24 C         143.6419  140.5486  159.8229 C.ar    1  UNL1        0.1058
     25 C         142.6222  141.5228  160.3341 C.ar    1  UNL1        0.0199
     26 S         143.8032  139.2137  160.4877 S.O2    1  UNL1        0.0104
     27 C         143.9646  137.8788  161.1526 C.3     1  UNL1        0.1816
     28 O         143.4189  138.5304  159.2089 O.2     1  UNL1       -0.1686
     29 O         144.1875  139.8970  161.7665 O.2     1  UNL1       -0.1686
@<TRIPOS>BOND
     1    16    17    1
     2    17    18    2
     3    17    19    2
     4    17    10    1
     5    10    11   ar
     6    11    12   ar
     7    12    13   ar
     8    13     1    1
     9     1     2   ar
    10     2     3   ar
    11     3     4   ar
    12     4     5   ar
    13     5     6   ar
    14     6     7   ar
    15     7    20    1
    16    20    21   ar
    17    21    22   ar
    18    22    23   ar
    19    23    24   ar
    20    24    26    1
    21    26    27    1
    22    26    28    2
    23    26    29    2
    24    24    25   ar
    25     7     8   ar
    26     8     9   ar
    27    13    14   ar
    28    14    15   ar
    29    15    10   ar
    30     9     1   ar
    31     8     4   ar
    32    25    20   ar
@<TRIPOS>MOLECULE
*****
 29 32 0 0 0
SMALL
GASTEIGER

@<TRIPOS>ATOM
      1 C         139.3088  139.7279  164.1612 C.ar    1  UNL1        0.1014
      2 C         138.7535  138.3897  163.7729 C.ar    1  UNL1        0.0240
      3 C         138.2940  138.1480  162.3657 C.ar    1  UNL1        0.0404
      4 C         138.3898  139.2446  161.3467 C.ar    1  UNL1        0.1639
      5 N         138.0184  139.3004  159.8944 N.ar    1  UNL1       -0.2234
      6 C         138.3442  140.6732  159.3851 C.ar    1  UNL1        0.1197
      7 C         138.9169  141.4657  160.5226 C.ar    1  UNL1        0.1036
      8 N         138.9450  140.5828  161.7349 N.ar    1  UNL1       -0.2107
      9 N         139.4045  140.8245  163.1421 N.ar    1  UNL1       -0.1638
     10 C         140.6874  140.4531  168.3830 C.ar    1  UNL1        0.1057
     11 C         139.3367  139.8528  168.1278 C.ar    1  UNL1        0.0184
     12 C         138.8771  139.6111  166.7205 C.ar    1  UNL1        0.0029
     13 C         139.7683  139.9697  165.5685 C.ar    1  UNL1        0.0194
     14 C         141.1190  140.5700  165.8237 C.ar    1  UNL1        0.0029
     15 C         141.5786  140.8118  167.2309 C.ar    1  UNL1        0.0184
     16 C         141.6065  140.9366  171.1975 C.3     1  UNL1        0.1816
     17 S         141.1469  140.6949  169.7902 S.O2    1  UNL1        0.0104
     18 O         140.5891  139.3645  170.2010 O.2     1  UNL1       -0.1686
     19 O         141.7048  142.0253  169.3795 O.2     1  UNL1       -0.1686
     20 C         139.3801  142.8910  160.4590 C.ar    1  UNL1        0.0206
     21 C         139.2877  143.7646  161.6748 C.ar    1  UNL1        0.0016
     22 C         139.7509  145.1899  161.6112 C.ar    1  UNL1        0.0014
     23 C         140.3065  145.7416  160.3319 C.ar    1  UNL1        0.0183
     24 C         140.3988  144.8680  159.1160 C.ar    1  UNL1        0.1058
     25 C         139.9356  143.4427  159.1796 C.ar    1  UNL1        0.0199
     26 S         140.9545  145.4197  157.8365 S.O2    1  UNL1        0.0104
     27 C         141.5101  145.9713  156.5571 C.3     1  UNL1        0.1816
     28 O         139.7311  144.9536  157.1043 O.2     1  UNL1       -0.1686
     29 O         142.1778  145.8857  158.5687 O.2     1  UNL1       -0.1686
@<TRIPOS>BOND
     1    16    17    1
     2    17    18    2
     3    17    19    2
     4    17    10    1
     5    10    11   ar
     6    11    12   ar
     7    12    13   ar
     8    13     1    1
     9     1     2   ar
    10     2     3   ar
    11     3     4   ar
    12     4     5   ar
    13     5     6   ar
    14     6     7   ar
    15     7    20    1
    16    20    21   ar
    17    21    22   ar
    18    22    23   ar
    19    23    24   ar
    20    24    26    1
    21    26    27    1
    22    26    28    2
    23    26    29    2
    24    24    25   ar
    25     7     8   ar
    26     8     9   ar
    27    13    14   ar
    28    14    15   ar
    29    15    10   ar
    30     9     1   ar
    31     8     4   ar
    32    25    20   ar
@<TRIPOS>MOLECULE
*****
 29 32 0 0 0
SMALL
GASTEIGER

@<TRIPOS>ATOM
      1 C         143.4005  140.0289  163.9468 C.ar    1  UNL1        0.1014
      2 C         144.2325  138.8652  163.4958 C.ar    1  UNL1        0.0240
      3 C         144.5068  138.6607  162.0354 C.ar    1  UNL1        0.0404
      4 C         143.9492  139.6200  161.0260 C.ar    1  UNL1        0.1639
      5 N         144.0507  139.6748  159.5304 N.ar    1  UNL1       -0.2234
      6 C         143.2815  140.8724  159.0572 C.ar    1  UNL1        0.1197
      7 C         142.7045  141.5577  160.2603 C.ar    1  UNL1        0.1036
      8 N         143.1172  140.7837  161.4771 N.ar    1  UNL1       -0.2107
      9 N         142.8428  140.9882  162.9375 N.ar    1  UNL1       -0.1638
     10 C         142.5774  140.6424  168.3283 C.ar    1  UNL1        0.1057
     11 C         142.6879  139.2533  167.7732 C.ar    1  UNL1        0.0184
     12 C         142.9623  139.0488  166.3127 C.ar    1  UNL1        0.0029
     13 C         143.1261  140.2334  165.4073 C.ar    1  UNL1        0.0194
     14 C         143.0156  141.6226  165.9624 C.ar    1  UNL1        0.0029
     15 C         142.7412  141.8271  167.4228 C.ar    1  UNL1        0.0184
     16 C         142.0287  141.0515  171.2491 C.3     1  UNL1        0.1816
     17 S         142.3030  140.8470  169.7887 S.O2    1  UNL1        0.0104
     18 O         141.2621  141.8723  169.4495 O.2     1  UNL1       -0.1686
     19 O         143.3439  139.8216  170.1278 O.2     1  UNL1       -0.1686
     20 C         141.8626  142.7992  160.2487 C.ar    1  UNL1        0.0206
     21 C         142.1293  143.8768  159.2399 C.ar    1  UNL1        0.0016
     22 C         141.2875  145.1182  159.2283 C.ar    1  UNL1        0.0014
     23 C         140.1789  145.2821  160.2254 C.ar    1  UNL1        0.0183
     24 C         139.9123  144.2044  161.2341 C.ar    1  UNL1        0.1058
     25 C         140.7541  142.9630  161.2457 C.ar    1  UNL1        0.0199
     26 S         138.8037  144.3683  162.2313 S.O2    1  UNL1        0.0104
     27 C         137.6952  144.5321  163.2285 C.3     1  UNL1        0.1816
     28 O         137.9751  143.3737  161.4735 O.2     1  UNL1       -0.1686
     29 O         139.6323  145.3628  162.9891 O.2     1  UNL1       -0.1686
@<TRIPOS>BOND
     1    16    17    1
     2    17    18    2
     3    17    19    2
     4    17    10    1
     5    10    11   ar
     6    11    12   ar
     7    12    13   ar
     8    13     1    1
     9     1     2   ar
    10     2     3   ar
    11     3     4   ar
    12     4     5   ar
    13     5     6   ar
    14     6     7   ar
    15     7    20    1
    16    20    21   ar
    17    21    22   ar
    18    22    23   ar
    19    23    24   ar
    20    24    26    1
    21    26    27    1
    22    26    28    2
    23    26    29    2
    24    24    25   ar
    25     7     8   ar
    26     8     9   ar
    27    13    14   ar
    28    14    15   ar
    29    15    10   ar
    30     9     1   ar
    31     8     4   ar
    32    25    20   ar
@<TRIPOS>MOLECULE
*****
 29 32 0 0 0
SMALL
GASTEIGER

@<TRIPOS>ATOM
      1 C         141.4001  138.4431  162.2407 C.ar    1  UNL1        0.1014
      2 C         141.2184  137.2391  163.1167 C.ar    1  UNL1        0.0240
      3 C         141.4089  137.3553  164.5999 C.ar    1  UNL1        0.0404
      4 C         141.7811  138.6754  165.2072 C.ar    1  UNL1        0.1639
      5 N         142.0340  139.0919  166.6259 N.ar    1  UNL1       -0.2234
      6 C         142.3719  140.5533  166.6267 C.ar    1  UNL1        0.1197
      7 C         142.3279  141.0400  165.2085 C.ar    1  UNL1        0.1036
      8 N         141.9628  139.8793  164.3312 N.ar    1  UNL1       -0.2107
      9 N         141.7723  139.7632  162.8479 N.ar    1  UNL1       -0.1638
     10 C         140.8285  138.0948  157.7906 C.ar    1  UNL1        0.1057
     11 C         142.1917  137.9092  158.3885 C.ar    1  UNL1        0.0184
     12 C         142.3822  138.0253  159.8719 C.ar    1  UNL1        0.0029
     13 C         141.2096  138.3270  160.7573 C.ar    1  UNL1        0.0194
     14 C         139.8465  138.5126  160.1594 C.ar    1  UNL1        0.0029
     15 C         139.6559  138.3965  158.6762 C.ar    1  UNL1        0.0184
     16 C         140.4474  137.8626  154.8241 C.3     1  UNL1        0.1816
     17 S         140.6380  137.9787  156.3074 S.O2    1  UNL1        0.0104
     18 O         142.0814  138.3267  156.0947 O.2     1  UNL1       -0.1686
     19 O         139.1945  137.6307  156.5200 O.2     1  UNL1       -0.1686
     20 C         142.6011  142.4412  164.7483 C.ar    1  UNL1        0.0206
     21 C         143.8444  143.1495  165.1984 C.ar    1  UNL1        0.0016
     22 C         144.1176  144.5508  164.7382 C.ar    1  UNL1        0.0014
     23 C         143.1476  145.2439  163.8279 C.ar    1  UNL1        0.0183
     24 C         141.9043  144.5356  163.3778 C.ar    1  UNL1        0.1058
     25 C         141.6311  143.1343  163.8380 C.ar    1  UNL1        0.0199
     26 S         140.9342  145.2286  162.4674 S.O2    1  UNL1        0.0104
     27 C         139.9642  145.9216  161.5571 C.3     1  UNL1        0.1816
     28 O         139.9477  145.3265  163.5932 O.2     1  UNL1       -0.1686
     29 O         141.9207  145.1307  161.3418 O.2     1  UNL1       -0.1686
@<TRIPOS>BOND
     1    16    17    1
     2    17    18    2
     3    17    19    2
     4    17    10    1
     5    10    11   ar
     6    11    12   ar
     7    12    13   ar
     8    13     1    1
     9     1     2   ar
    10     2     3   ar
    11     3     4   ar
    12     4     5   ar
    13     5     6   ar
    14     6     7   ar
    15     7    20    1
    16    20    21   ar
    17    21    22   ar
    18    22    23   ar
    19    23    24   ar
    20    24    26    1
    21    26    27    1
    22    26    28    2
    23    26    29    2
    24    24    25   ar
    25     7     8   ar
    26     8     9   ar
    27    13    14   ar
    28    14    15   ar
    29    15    10   ar
    30     9     1   ar
    31     8     4   ar
    32    25    20   ar
