@<TRIPOS>MOLECULE
*****
 31 33 0 0 0
SMALL
GASTEIGER

@<TRIPOS>ATOM
      1 C         140.6992  140.6205  164.0492 C.ar    1  UNL1        0.0251
      2 C         140.3527  141.8350  163.2400 C.ar    1  UNL1        0.0085
      3 C         141.5167  142.1438  162.3458 C.ar    1  UNL1        0.0559
      4 C         142.5827  141.1201  162.6023 C.ar    1  UNL1        0.0117
      5 C         143.9192  141.0501  161.9250 C.3     1  UNL1        0.0383
      6 S         142.0774  140.1786  163.6552 S.2     1  UNL1       -0.0938
      7 C         140.4557  141.4633  167.1925 C.2     1  UNL1        0.2422
      8 O         141.4179  142.3050  166.4080 O.2     1  UNL1       -0.2733
      9 N         139.7096  140.3506  166.5176 N.am    1  UNL1       -0.2758
     10 C         138.7207  139.4300  167.1690 C.3     1  UNL1        0.0938
     11 C         138.2214  138.4736  166.1269 C.3     1  UNL1        0.0236
     12 C         138.9018  138.8031  164.8314 C.3     1  UNL1        0.0266
     13 C         139.8216  139.9632  165.0729 C.3     1  UNL1        0.1038
     14 C         140.2394  141.7342  168.6518 C.3     1  UNL1        0.1589
     15 N         141.1379  141.1021  169.6732 N.3     1  UNL1       -0.2603
     16 C         142.6199  139.0153  170.1195 C.3     1  UNL1        0.0188
     17 C         141.3083  139.6121  169.7025 C.3     1  UNL1        0.0729
     18 C         141.8659  141.9600  170.6652 C.3     1  UNL1        0.1149
     19 C         142.9755  142.8594  170.2071 C.2     1  UNL1        0.0666
     20 O         143.4171  144.0045  171.0694 O.co2   1  UNL1       -0.5477
     21 O         143.6434  142.6138  168.8867 O.co2   1  UNL1       -0.5477
     22 C         141.6002  143.2772  161.3668 C.2     1  UNL1        0.2511
     23 O         142.0701  144.6274  161.8210 O.2     1  UNL1       -0.2698
     24 N         141.2138  143.0605  159.9337 N.am    1  UNL1       -0.2605
     25 H         140.9054  142.1744  159.6356 H       1  UNL1        0.1571
     26 C         141.2973  144.1941  158.9548 C.ar    1  UNL1        0.1679
     27 N         142.5558  144.7606  158.3671 N.ar    1  UNL1       -0.2199
     28 C         142.1731  145.8767  157.4409 C.ar    1  UNL1        0.1372
     29 C         140.6784  145.9999  157.4560 C.ar    1  UNL1        0.1914
     30 F         139.8672  146.9893  156.6730 F       1  UNL1       -0.1953
     31 S         140.1370  144.9600  158.3917 S.2     1  UNL1       -0.0220
@<TRIPOS>UNITY_ATOM_ATTR
20 1
charge -1
@<TRIPOS>BOND
     1    16    17    1
     2    17    15    1
     3    15    18    1
     4    18    19    1
     5    19    20   ar
     6    19    21   ar
     7    15    14    1
     8    14     7    1
     9     7     8    2
    10     7     9   am
    11     9    10    1
    12    10    11    1
    13    11    12    1
    14    12    13    1
    15    13     1    1
    16     1     2   ar
    17     2     3   ar
    18     3    22    1
    19    22    23    2
    20    22    24   am
    21    24    26    1
    22    26    27   ar
    23    27    28   ar
    24    28    29   ar
    25    29    30    1
    26    29    31   ar
    27     3     4   ar
    28     4     5    1
    29     4     6   ar
    30    13     9    1
    31     6     1   ar
    32    31    26   ar
    33    24    25    1
@<TRIPOS>MOLECULE
*****
 31 33 0 0 0
SMALL
GASTEIGER

@<TRIPOS>ATOM
      1 C         140.2319  141.4571  163.7528 C.ar    1  UNL1        0.0251
      2 C         140.8677  140.9206  162.5046 C.ar    1  UNL1        0.0085
      3 C         141.3295  142.0866  161.6817 C.ar    1  UNL1        0.0559
      4 C         140.9791  143.3437  162.4212 C.ar    1  UNL1        0.0117
      5 C         141.2580  144.7439  161.9615 C.3     1  UNL1        0.0383
      6 S         140.3007  142.9546  163.7013 S.2     1  UNL1       -0.0938
      7 C         141.8024  140.3575  166.3937 C.2     1  UNL1        0.2422
      8 O         142.6648  141.1508  165.4573 O.2     1  UNL1       -0.2733
      9 N         140.3543  140.1341  166.0722 N.am    1  UNL1       -0.2758
     10 C         139.3739  139.3661  166.9082 C.3     1  UNL1        0.0938
     11 C         138.0461  139.3968  166.2110 C.3     1  UNL1        0.0236
     12 C         138.2059  140.1838  164.9441 C.3     1  UNL1        0.0266
     13 C         139.6325  140.6395  164.8584 C.3     1  UNL1        0.1038
     14 C         142.3880  139.7877  167.6515 C.3     1  UNL1        0.1589
     15 N         142.1896  140.4956  168.9590 N.3     1  UNL1       -0.2603
     16 C         143.8820  142.2950  169.7639 C.3     1  UNL1        0.0188
     17 C         142.5859  141.9354  169.1000 C.3     1  UNL1        0.0729
     18 C         141.5949  139.7637  170.1255 C.3     1  UNL1        0.1149
     19 C         140.4186  140.3432  170.8538 C.2     1  UNL1        0.0666
     20 O         139.0401  139.8117  170.5950 O.co2   1  UNL1       -0.5477
     21 O         140.6208  141.4542  171.8410 O.co2   1  UNL1       -0.5477
     22 C         142.0205  142.0091  160.3526 C.2     1  UNL1        0.2511
     23 O         141.3224  142.4905  159.1152 O.2     1  UNL1       -0.2698
     24 N         143.4095  141.4503  160.2607 N.am    1  UNL1       -0.2605
     25 H         143.8677  141.1344  161.0728 H       1  UNL1        0.1571
     26 C         144.1004  141.3729  158.9315 C.ar    1  UNL1        0.1679
     27 N         144.2068  140.1546  158.0628 N.ar    1  UNL1       -0.2199
     28 C         144.9784  140.5291  156.8321 C.ar    1  UNL1        0.1372
     29 C         145.3487  141.9785  156.9402 C.ar    1  UNL1        0.1914
     30 F         146.1254  142.7679  155.9284 F       1  UNL1       -0.1953
     31 S         144.8061  142.5001  158.2377 S.2     1  UNL1       -0.0220
@<TRIPOS>UNITY_ATOM_ATTR
20 1
charge -1
@<TRIPOS>BOND
     1    16    17    1
     2    17    15    1
     3    15    18    1
     4    18    19    1
     5    19    20   ar
     6    19    21   ar
     7    15    14    1
     8    14     7    1
     9     7     8    2
    10     7     9   am
    11     9    10    1
    12    10    11    1
    13    11    12    1
    14    12    13    1
    15    13     1    1
    16     1     2   ar
    17     2     3   ar
    18     3    22    1
    19    22    23    2
    20    22    24   am
    21    24    26    1
    22    26    27   ar
    23    27    28   ar
    24    28    29   ar
    25    29    30    1
    26    29    31   ar
    27     3     4   ar
    28     4     5    1
    29     4     6   ar
    30    13     9    1
    31     6     1   ar
    32    31    26   ar
    33    24    25    1
@<TRIPOS>MOLECULE
*****
 31 33 0 0 0
SMALL
GASTEIGER

@<TRIPOS>ATOM
      1 C         139.1715  143.1998  161.3299 C.ar    1  UNL1        0.0251
      2 C         138.2257  142.2460  160.6622 C.ar    1  UNL1        0.0085
      3 C         138.5594  142.2095  159.2002 C.ar    1  UNL1        0.0559
      4 C         139.7114  143.1408  158.9643 C.ar    1  UNL1        0.0117
      5 C         140.3695  143.4124  157.6441 C.3     1  UNL1        0.0383
      6 S         140.0897  143.7528  160.2806 S.2     1  UNL1       -0.0938
      7 C         140.4643  141.3735  163.7053 C.2     1  UNL1        0.2422
      8 O         140.5906  140.7728  162.3367 O.2     1  UNL1       -0.2733
      9 N         139.7892  142.7012  163.8823 N.am    1  UNL1       -0.2758
     10 C         139.5897  143.4226  165.1822 C.3     1  UNL1        0.0938
     11 C         138.8722  144.7079  164.8937 C.3     1  UNL1        0.0236
     12 C         138.6282  144.7809  163.4155 C.3     1  UNL1        0.0266
     13 C         139.1949  143.5406  162.7904 C.3     1  UNL1        0.1038
     14 C         141.0132  140.6464  164.8970 C.3     1  UNL1        0.1589
     15 N         140.2834  139.4599  165.4533 N.3     1  UNL1       -0.2603
     16 C         137.9831  138.8836  166.5148 C.3     1  UNL1        0.0188
     17 C         139.2748  139.6454  166.5481 C.3     1  UNL1        0.0729
     18 C         140.5620  138.0879  164.9148 C.3     1  UNL1        0.1149
     19 C         140.0438  137.6929  163.5637 C.2     1  UNL1        0.0666
     20 O         140.9687  137.0767  162.5564 O.co2   1  UNL1       -0.5477
     21 O         138.6006  137.9142  163.2199 O.co2   1  UNL1       -0.5477
     22 C         137.8633  141.3864  158.1572 C.2     1  UNL1        0.2511
     23 O         138.1188  139.9107  158.0727 O.2     1  UNL1       -0.2698
     24 N         136.9117  142.0389  157.1987 N.am    1  UNL1       -0.2605
     25 H         136.7440  143.0074  157.2541 H       1  UNL1        0.1571
     26 C         136.2156  141.2156  156.1557 C.ar    1  UNL1        0.1679
     27 N         135.1073  140.2351  156.4013 N.ar    1  UNL1       -0.2199
     28 C         134.7124  139.6419  155.0813 C.ar    1  UNL1        0.1372
     29 C         135.5766  140.2558  154.0200 C.ar    1  UNL1        0.1914
     30 F         135.5215  139.9506  152.5524 F       1  UNL1       -0.1953
     31 S         136.5056  141.2284  154.6840 S.2     1  UNL1       -0.0220
@<TRIPOS>UNITY_ATOM_ATTR
20 1
charge -1
@<TRIPOS>BOND
     1    16    17    1
     2    17    15    1
     3    15    18    1
     4    18    19    1
     5    19    20   ar
     6    19    21   ar
     7    15    14    1
     8    14     7    1
     9     7     8    2
    10     7     9   am
    11     9    10    1
    12    10    11    1
    13    11    12    1
    14    12    13    1
    15    13     1    1
    16     1     2   ar
    17     2     3   ar
    18     3    22    1
    19    22    23    2
    20    22    24   am
    21    24    26    1
    22    26    27   ar
    23    27    28   ar
    24    28    29   ar
    25    29    30    1
    26    29    31   ar
    27     3     4   ar
    28     4     5    1
    29     4     6   ar
    30    13     9    1
    31     6     1   ar
    32    31    26   ar
    33    24    25    1
@<TRIPOS>MOLECULE
*****
 31 33 0 0 0
SMALL
GASTEIGER

@<TRIPOS>ATOM
      1 C         143.3278  141.5661  164.0297 C.ar    1  UNL1        0.0251
      2 C         142.8327  141.5705  162.6138 C.ar    1  UNL1        0.0085
      3 C         143.0787  142.9348  162.0409 C.ar    1  UNL1        0.0559
      4 C         143.7259  143.7737  163.1029 C.ar    1  UNL1        0.0117
      5 C         144.1454  145.2067  162.9607 C.3     1  UNL1        0.0383
      6 S         143.8798  142.9277  164.3320 S.2     1  UNL1       -0.0938
      7 C         141.0749  141.0647  166.3368 C.2     1  UNL1        0.2422
      8 O         140.8634  142.3176  165.5397 O.2     1  UNL1       -0.2733
      9 N         142.2438  140.1737  166.0375 N.am    1  UNL1       -0.2758
     10 C         142.5825  138.8957  166.7460 C.3     1  UNL1        0.0938
     11 C         143.8273  138.3363  166.1235 C.3     1  UNL1        0.0236
     12 C         144.2580  139.2686  165.0301 C.3     1  UNL1        0.0266
     13 C         143.2794  140.4041  164.9770 C.3     1  UNL1        0.1038
     14 C         140.1175  140.7029  167.4333 C.3     1  UNL1        0.1589
     15 N         140.0315  141.5543  168.6652 N.3     1  UNL1       -0.2603
     16 C         140.2902  140.0234  170.7483 C.3     1  UNL1        0.0188
     17 C         139.4730  140.9826  169.9346 C.3     1  UNL1        0.0729
     18 C         140.5040  142.9774  168.6278 C.3     1  UNL1        0.1149
     19 C         140.8357  143.6914  169.9046 C.2     1  UNL1        0.0666
     20 O         141.9997  143.2398  170.7359 O.co2   1  UNL1       -0.5477
     21 O         140.0033  144.8570  170.3502 O.co2   1  UNL1       -0.5477
     22 C         142.7376  143.3819  160.6504 C.2     1  UNL1        0.2511
     23 O         143.3153  142.6618  159.4681 O.2     1  UNL1       -0.2698
     24 N         141.8187  144.5491  160.4420 N.am    1  UNL1       -0.2605
     25 H         141.4396  145.0218  161.2180 H       1  UNL1        0.1571
     26 C         141.4776  144.9962  159.0513 C.ar    1  UNL1        0.1679
     27 N         142.3412  145.8375  158.1589 N.ar    1  UNL1       -0.2199
     28 C         141.6102  146.0416  156.8651 C.ar    1  UNL1        0.1372
     29 C         140.2949  145.3265  156.9578 C.ar    1  UNL1        0.1914
     30 F         139.2458  145.2678  155.8874 F       1  UNL1       -0.1953
     31 S         140.2129  144.6804  158.3091 S.2     1  UNL1       -0.0220
@<TRIPOS>UNITY_ATOM_ATTR
20 1
charge -1
@<TRIPOS>BOND
     1    16    17    1
     2    17    15    1
     3    15    18    1
     4    18    19    1
     5    19    20   ar
     6    19    21   ar
     7    15    14    1
     8    14     7    1
     9     7     8    2
    10     7     9   am
    11     9    10    1
    12    10    11    1
    13    11    12    1
    14    12    13    1
    15    13     1    1
    16     1     2   ar
    17     2     3   ar
    18     3    22    1
    19    22    23    2
    20    22    24   am
    21    24    26    1
    22    26    27   ar
    23    27    28   ar
    24    28    29   ar
    25    29    30    1
    26    29    31   ar
    27     3     4   ar
    28     4     5    1
    29     4     6   ar
    30    13     9    1
    31     6     1   ar
    32    31    26   ar
    33    24    25    1
@<TRIPOS>MOLECULE
*****
 31 33 0 0 0
SMALL
GASTEIGER

@<TRIPOS>ATOM
      1 C         139.2463  143.3072  161.3337 C.ar    1  UNL1        0.0251
      2 C         138.3348  142.2854  160.7212 C.ar    1  UNL1        0.0085
      3 C         138.5662  142.2870  159.2391 C.ar    1  UNL1        0.0559
      4 C         139.6206  143.3098  158.9356 C.ar    1  UNL1        0.0117
      5 C         140.1600  143.6435  157.5764 C.3     1  UNL1        0.0383
      6 S         140.0409  143.9404  160.2302 S.2     1  UNL1       -0.0938
      7 C         141.2689  141.9141  163.4826 C.2     1  UNL1        0.2422
      8 O         141.3957  141.3762  162.0882 O.2     1  UNL1       -0.2733
      9 N         140.2753  142.9975  163.7812 N.am    1  UNL1       -0.2758
     10 C         140.0369  143.6308  165.1198 C.3     1  UNL1        0.0938
     11 C         138.9600  144.6625  164.9595 C.3     1  UNL1        0.0236
     12 C         138.5327  144.6669  163.5216 C.3     1  UNL1        0.0266
     13 C         139.3456  143.6379  162.7934 C.3     1  UNL1        0.1038
     14 C         142.1357  141.3687  164.5786 C.3     1  UNL1        0.1589
     15 N         143.6280  141.3727  164.4268 N.3     1  UNL1       -0.2603
     16 C         143.7951  138.9007  165.2088 C.3     1  UNL1        0.0188
     17 C         144.3938  140.0856  164.5106 C.3     1  UNL1        0.0729
     18 C         144.3544  142.6637  164.1913 C.3     1  UNL1        0.1149
     19 C         144.6335  143.1226  162.7907 C.2     1  UNL1        0.0666
     20 O         144.3822  144.5502  162.4052 O.co2   1  UNL1       -0.5477
     21 O         145.1639  142.1539  161.7758 O.co2   1  UNL1       -0.5477
     22 C         137.8660  141.4183  158.2365 C.2     1  UNL1        0.2511
     23 O         138.0846  139.9343  158.2475 O.2     1  UNL1       -0.2698
     24 N         136.9473  142.0336  157.2229 N.am    1  UNL1       -0.2605
     25 H         136.8038  143.0076  157.2156 H       1  UNL1        0.1571
     26 C         136.2472  141.1648  156.2203 C.ar    1  UNL1        0.1679
     27 N         135.0680  140.2785  156.4926 N.ar    1  UNL1       -0.2199
     28 C         134.6955  139.5959  155.2099 C.ar    1  UNL1        0.1372
     29 C         135.6442  140.0602  154.1450 C.ar    1  UNL1        0.1914
     30 F         135.6356  139.6304  152.7079 F       1  UNL1       -0.1953
     31 S         136.6033  141.0299  154.7694 S.2     1  UNL1       -0.0220
@<TRIPOS>UNITY_ATOM_ATTR
20 1
charge -1
@<TRIPOS>BOND
     1    16    17    1
     2    17    15    1
     3    15    18    1
     4    18    19    1
     5    19    20   ar
     6    19    21   ar
     7    15    14    1
     8    14     7    1
     9     7     8    2
    10     7     9   am
    11     9    10    1
    12    10    11    1
    13    11    12    1
    14    12    13    1
    15    13     1    1
    16     1     2   ar
    17     2     3   ar
    18     3    22    1
    19    22    23    2
    20    22    24   am
    21    24    26    1
    22    26    27   ar
    23    27    28   ar
    24    28    29   ar
    25    29    30    1
    26    29    31   ar
    27     3     4   ar
    28     4     5    1
    29     4     6   ar
    30    13     9    1
    31     6     1   ar
    32    31    26   ar
    33    24    25    1
@<TRIPOS>MOLECULE
*****
 31 33 0 0 0
SMALL
GASTEIGER

@<TRIPOS>ATOM
      1 C         139.2493  143.1763  161.4022 C.ar    1  UNL1        0.0251
      2 C         138.2999  142.2117  160.7555 C.ar    1  UNL1        0.0085
      3 C         138.6023  142.1783  159.2866 C.ar    1  UNL1        0.0559
      4 C         139.7385  143.1222  159.0256 C.ar    1  UNL1        0.0117
      5 C         140.3649  143.4004  157.6914 C.3     1  UNL1        0.0383
      6 S         140.1384  143.7390  160.3332 S.2     1  UNL1       -0.0938
      7 C         140.8427  141.5059  163.7088 C.2     1  UNL1        0.2422
      8 O         140.9731  140.9225  162.3331 O.2     1  UNL1       -0.2733
      9 N         140.0329  142.7503  163.9221 N.am    1  UNL1       -0.2758
     10 C         139.8133  143.4455  165.2330 C.3     1  UNL1        0.0938
     11 C         138.9452  144.6430  164.9830 C.3     1  UNL1        0.0236
     12 C         138.6283  144.6879  163.5175 C.3     1  UNL1        0.0266
     13 C         139.3005  143.5182  162.8619 C.3     1  UNL1        0.1038
     14 C         141.5221  140.8448  164.8712 C.3     1  UNL1        0.1589
     15 N         140.7251  140.0124  165.8314 N.3     1  UNL1       -0.2603
     16 C         138.1937  139.7530  165.3073 C.3     1  UNL1        0.0188
     17 C         139.5803  139.1814  165.3325 C.3     1  UNL1        0.0729
     18 C         141.0729  140.0110  167.2905 C.3     1  UNL1        0.1149
     19 C         140.1032  140.5625  168.2932 C.2     1  UNL1        0.0666
     20 O         140.2353  141.9809  168.7628 O.co2   1  UNL1       -0.5477
     21 O         139.0013  139.6956  168.8263 O.co2   1  UNL1       -0.5477
     22 C         137.8930  141.3469  158.2591 C.2     1  UNL1        0.2511
     23 O         138.1147  139.8641  158.2109 O.2     1  UNL1       -0.2698
     24 N         136.9620  141.9983  157.2799 N.am    1  UNL1       -0.2605
     25 H         136.8164  142.9715  157.3115 H       1  UNL1        0.1571
     26 C         136.2526  141.1668  156.2523 C.ar    1  UNL1        0.1679
     27 N         135.0844  140.2605  156.5051 N.ar    1  UNL1       -0.2199
     28 C         134.6969  139.6293  155.2006 C.ar    1  UNL1        0.1372
     29 C         135.6255  140.1455  154.1418 C.ar    1  UNL1        0.1914
     30 F         135.5976  139.7764  152.6882 F       1  UNL1       -0.1953
     31 S         136.5871  141.0958  154.7918 S.2     1  UNL1       -0.0220
@<TRIPOS>UNITY_ATOM_ATTR
20 1
charge -1
@<TRIPOS>BOND
     1    16    17    1
     2    17    15    1
     3    15    18    1
     4    18    19    1
     5    19    20   ar
     6    19    21   ar
     7    15    14    1
     8    14     7    1
     9     7     8    2
    10     7     9   am
    11     9    10    1
    12    10    11    1
    13    11    12    1
    14    12    13    1
    15    13     1    1
    16     1     2   ar
    17     2     3   ar
    18     3    22    1
    19    22    23    2
    20    22    24   am
    21    24    26    1
    22    26    27   ar
    23    27    28   ar
    24    28    29   ar
    25    29    30    1
    26    29    31   ar
    27     3     4   ar
    28     4     5    1
    29     4     6   ar
    30    13     9    1
    31     6     1   ar
    32    31    26   ar
    33    24    25    1
@<TRIPOS>MOLECULE
*****
 31 33 0 0 0
SMALL
GASTEIGER

@<TRIPOS>ATOM
      1 C         144.0674  142.8988  160.9236 C.ar    1  UNL1        0.0251
      2 C         145.2275  142.5447  160.0410 C.ar    1  UNL1        0.0085
      3 C         144.7339  142.4923  158.6256 C.ar    1  UNL1        0.0559
      4 C         143.2688  142.8140  158.6333 C.ar    1  UNL1        0.0117
      5 C         142.3729  142.8739  157.4318 C.3     1  UNL1        0.0383
      6 S         142.8569  143.0653  160.0536 S.2     1  UNL1       -0.0938
      7 C         144.3392  140.4861  163.1041 C.2     1  UNL1        0.2422
      8 O         144.3227  140.0208  161.6782 O.2     1  UNL1       -0.2733
      9 N         144.2353  141.9495  163.4167 N.am    1  UNL1       -0.2758
     10 C         144.2381  142.5608  164.7865 C.3     1  UNL1        0.0938
     11 C         144.1150  144.0476  164.6308 C.3     1  UNL1        0.0236
     12 C         144.0360  144.3552  163.1648 C.3     1  UNL1        0.0266
     13 C         144.1104  143.0585  162.4145 C.3     1  UNL1        0.1038
     14 C         144.4594  139.4880  164.2173 C.3     1  UNL1        0.1589
     15 N         143.2260  138.8760  164.8125 N.3     1  UNL1       -0.2603
     16 C         141.7996  137.6959  162.9897 C.3     1  UNL1        0.0188
     17 C         141.9662  138.7894  164.0028 C.3     1  UNL1        0.0729
     18 C         143.2524  138.3508  166.2172 C.3     1  UNL1        0.1149
     19 C         142.8672  139.2437  167.3592 C.2     1  UNL1        0.0666
     20 O         143.0998  138.7970  168.7721 O.co2   1  UNL1       -0.5477
     21 O         142.2493  140.5834  167.0884 O.co2   1  UNL1       -0.5477
     22 C         145.5603  142.1741  157.4148 C.2     1  UNL1        0.2511
     23 O         145.3499  140.8825  156.6815 O.2     1  UNL1       -0.2698
     24 N         146.5970  143.1473  156.9374 N.am    1  UNL1       -0.2605
     25 H         146.7351  143.9950  157.4187 H       1  UNL1        0.1571
     26 C         147.4234  142.8290  155.7266 C.ar    1  UNL1        0.1679
     27 N         148.5521  141.8430  155.6639 N.ar    1  UNL1       -0.2199
     28 C         149.0923  141.8455  154.2645 C.ar    1  UNL1        0.1372
     29 C         148.2976  142.8330  153.4625 C.ar    1  UNL1        0.1914
     30 F         148.4989  143.1559  152.0116 F       1  UNL1       -0.1953
     31 S         147.2661  143.4408  154.3661 S.2     1  UNL1       -0.0220
@<TRIPOS>UNITY_ATOM_ATTR
20 1
charge -1
@<TRIPOS>BOND
     1    16    17    1
     2    17    15    1
     3    15    18    1
     4    18    19    1
     5    19    20   ar
     6    19    21   ar
     7    15    14    1
     8    14     7    1
     9     7     8    2
    10     7     9   am
    11     9    10    1
    12    10    11    1
    13    11    12    1
    14    12    13    1
    15    13     1    1
    16     1     2   ar
    17     2     3   ar
    18     3    22    1
    19    22    23    2
    20    22    24   am
    21    24    26    1
    22    26    27   ar
    23    27    28   ar
    24    28    29   ar
    25    29    30    1
    26    29    31   ar
    27     3     4   ar
    28     4     5    1
    29     4     6   ar
    30    13     9    1
    31     6     1   ar
    32    31    26   ar
    33    24    25    1
@<TRIPOS>MOLECULE
*****
 31 33 0 0 0
SMALL
GASTEIGER

@<TRIPOS>ATOM
      1 C         143.8467  141.2786  160.8436 C.ar    1  UNL1        0.0251
      2 C         143.1979  139.9564  160.5594 C.ar    1  UNL1        0.0085
      3 C         143.1249  139.7863  159.0709 C.ar    1  UNL1        0.0559
      4 C         143.7286  141.0034  158.4350 C.ar    1  UNL1        0.0117
      5 C         143.8626  141.2542  156.9623 C.3     1  UNL1        0.0383
      6 S         144.1747  141.9258  159.5307 S.2     1  UNL1       -0.0938
      7 C         141.7829  143.0840  162.6129 C.2     1  UNL1        0.2422
      8 O         141.2308  142.6488  161.2878 O.2     1  UNL1       -0.2733
      9 N         143.1710  142.6827  163.0154 N.am    1  UNL1       -0.2758
     10 C         143.8543  143.0408  164.3018 C.3     1  UNL1        0.0938
     11 C         145.2252  142.4323  164.2836 C.3     1  UNL1        0.0236
     12 C         145.3892  141.6981  162.9859 C.3     1  UNL1        0.0266
     13 C         144.1197  141.8529  162.2021 C.3     1  UNL1        0.1038
     14 C         140.9467  143.9204  163.5355 C.3     1  UNL1        0.1589
     15 N         139.7427  144.6432  163.0084 N.3     1  UNL1       -0.2603
     16 C         140.1595  145.8448  160.7429 C.3     1  UNL1        0.0188
     17 C         139.9126  145.9087  162.2210 C.3     1  UNL1        0.0729
     18 C         138.3687  144.1006  163.2685 C.3     1  UNL1        0.1149
     19 C         137.8066  143.0268  162.3848 C.2     1  UNL1        0.0666
     20 O         137.0447  141.8832  162.9860 O.co2   1  UNL1       -0.5477
     21 O         138.0066  143.0966  160.8998 O.co2   1  UNL1       -0.5477
     22 C         142.5493  138.6063  158.3454 C.2     1  UNL1        0.2511
     23 O         141.1424  138.1673  158.6250 O.2     1  UNL1       -0.2698
     24 N         143.3804  137.8653  157.3404 N.am    1  UNL1       -0.2605
     25 H         144.3038  138.1534  157.1569 H       1  UNL1        0.1571
     26 C         142.8047  136.6852  156.6150 C.ar    1  UNL1        0.1679
     27 N         142.9977  135.2440  156.9832 N.ar    1  UNL1       -0.2199
     28 C         142.2472  134.4074  155.9897 C.ar    1  UNL1        0.1372
     29 C         141.5904  135.3315  155.0076 C.ar    1  UNL1        0.1914
     30 F         140.7387  134.9202  153.8435 F       1  UNL1       -0.1953
     31 S         141.9350  136.7394  155.3940 S.2     1  UNL1       -0.0220
@<TRIPOS>UNITY_ATOM_ATTR
20 1
charge -1
@<TRIPOS>BOND
     1    16    17    1
     2    17    15    1
     3    15    18    1
     4    18    19    1
     5    19    20   ar
     6    19    21   ar
     7    15    14    1
     8    14     7    1
     9     7     8    2
    10     7     9   am
    11     9    10    1
    12    10    11    1
    13    11    12    1
    14    12    13    1
    15    13     1    1
    16     1     2   ar
    17     2     3   ar
    18     3    22    1
    19    22    23    2
    20    22    24   am
    21    24    26    1
    22    26    27   ar
    23    27    28   ar
    24    28    29   ar
    25    29    30    1
    26    29    31   ar
    27     3     4   ar
    28     4     5    1
    29     4     6   ar
    30    13     9    1
    31     6     1   ar
    32    31    26   ar
    33    24    25    1
@<TRIPOS>MOLECULE
*****
 31 33 0 0 0
SMALL
GASTEIGER

@<TRIPOS>ATOM
      1 C         143.2786  139.5577  161.3619 C.ar    1  UNL1        0.0251
      2 C         143.8902  140.5657  160.4345 C.ar    1  UNL1        0.0085
      3 C         143.7187  140.0673  159.0302 C.ar    1  UNL1        0.0559
      4 C         143.0011  138.7514  159.0896 C.ar    1  UNL1        0.0117
      5 C         142.6221  137.9000  157.9143 C.3     1  UNL1        0.0383
      6 S         142.7291  138.4365  160.5308 S.2     1  UNL1       -0.0938
      7 C         140.9315  141.0025  163.1093 C.2     1  UNL1        0.2422
      8 O         140.7138  141.0643  161.6265 O.2     1  UNL1       -0.2733
      9 N         142.1469  140.3183  163.6610 N.am    1  UNL1       -0.2758
     10 C         142.4970  140.1779  165.1129 C.3     1  UNL1        0.0938
     11 C         143.7921  139.4271  165.2070 C.3     1  UNL1        0.0236
     12 C         144.2426  139.1034  163.8133 C.3     1  UNL1        0.0266
     13 C         143.2258  139.6542  162.8579 C.3     1  UNL1        0.1038
     14 C         139.9336  141.6250  164.0403 C.3     1  UNL1        0.1589
     15 N         138.5294  141.1005  164.0943 N.3     1  UNL1       -0.2603
     16 C         138.9025  139.8551  166.3438 C.3     1  UNL1        0.0188
     17 C         138.1810  139.9853  165.0351 C.3     1  UNL1        0.0729
     18 C         137.4735  141.6911  163.2076 C.3     1  UNL1        0.1149
     19 C         137.6976  143.0259  162.5611 C.2     1  UNL1        0.0666
     20 O         138.0132  143.1066  161.0970 O.co2   1  UNL1       -0.5477
     21 O         137.6061  144.2801  163.3788 O.co2   1  UNL1       -0.5477
     22 C         144.1832  140.7628  157.7849 C.2     1  UNL1        0.2511
     23 O         143.5008  142.0180  157.3279 O.2     1  UNL1       -0.2698
     24 N         145.3302  140.2030  156.9967 N.am    1  UNL1       -0.2605
     25 H         145.7780  139.3792  157.2966 H       1  UNL1        0.1571
     26 C         145.7947  140.8985  155.7514 C.ar    1  UNL1        0.1679
     27 N         145.2672  140.6712  154.3657 N.ar    1  UNL1       -0.2199
     28 C         146.0148  141.5757  153.4312 C.ar    1  UNL1        0.1372
     29 C         147.0041  142.3618  154.2393 C.ar    1  UNL1        0.1914
     30 F         147.9614  143.3866  153.7070 F       1  UNL1       -0.1953
     31 S         146.8681  141.9434  155.6733 S.2     1  UNL1       -0.0220
@<TRIPOS>UNITY_ATOM_ATTR
20 1
charge -1
@<TRIPOS>BOND
     1    16    17    1
     2    17    15    1
     3    15    18    1
     4    18    19    1
     5    19    20   ar
     6    19    21   ar
     7    15    14    1
     8    14     7    1
     9     7     8    2
    10     7     9   am
    11     9    10    1
    12    10    11    1
    13    11    12    1
    14    12    13    1
    15    13     1    1
    16     1     2   ar
    17     2     3   ar
    18     3    22    1
    19    22    23    2
    20    22    24   am
    21    24    26    1
    22    26    27   ar
    23    27    28   ar
    24    28    29   ar
    25    29    30    1
    26    29    31   ar
    27     3     4   ar
    28     4     5    1
    29     4     6   ar
    30    13     9    1
    31     6     1   ar
    32    31    26   ar
    33    24    25    1
