@<TRIPOS>MOLECULE
*****
 37 41 0 0 0
SMALL
GASTEIGER

@<TRIPOS>ATOM
      1 C         139.3425  142.6787  162.2762 C.ar    1  UNL1        0.0536
      2 C         140.2047  142.1121  161.1873 C.ar    1  UNL1        0.0042
      3 C         140.9178  143.0313  160.2405 C.ar    1  UNL1       -0.0041
      4 C         140.7687  144.5171  160.3825 C.ar    1  UNL1       -0.0208
      5 C         139.9065  145.0837  161.4713 C.ar    1  UNL1       -0.0041
      6 C         139.1934  144.1645  162.4182 C.ar    1  UNL1        0.0042
      7 C         143.1702  141.6532  169.1375 C.3     1  UNL1        0.0437
      8 C         141.9063  140.8461  169.1681 C.3     1  UNL1        0.1367
      9 C         142.3746  140.4558  170.5386 C.3     1  UNL1        0.0437
     10 C         141.7021  141.4053  167.7912 C.3     1  UNL1        0.0508
     11 C         140.4099  140.8621  167.2572 C.3     1  UNL1        0.0962
     12 C         141.1230  141.7813  166.3103 C.3     1  UNL1        0.0322
     13 C         140.5295  142.0804  164.9657 C.3     1  UNL1        0.0943
     14 N         139.2229  141.4603  164.5678 N.am    1  UNL1       -0.2761
     15 C         138.6294  141.7595  163.2230 C.2     1  UNL1        0.2490
     16 O         137.3228  141.1394  162.8252 O.2     1  UNL1       -0.2699
     17 C         138.5098  140.5412  165.5146 C.3     1  UNL1        0.0943
     18 C         139.1033  140.2421  166.8593 C.3     1  UNL1        0.0322
     19 C         139.8153  139.9673  168.3041 C.2     1  UNL1        0.3159
     20 O         138.5229  139.2146  168.1900 O.2     1  UNL1       -0.2501
     21 O         140.7401  139.9574  169.4851 O.3     1  UNL1       -0.4557
     22 C         141.4818  145.4363  159.4356 C.3     1  UNL1        0.0420
     23 C         140.9881  145.5932  158.0279 C.3     1  UNL1        0.0585
     24 C         141.4504  144.8048  156.8384 C.3     1  UNL1        0.0175
     25 C         140.6934  145.2904  155.6379 C.3     1  UNL1        0.0199
     26 C         139.7633  146.3789  156.0855 C.3     1  UNL1        0.0855
     27 N         139.9455  146.5660  157.5626 N.3     1  UNL1       -0.2971
     28 H         139.0650  146.3869  158.0453 H       1  UNL1        0.1233
     29 C         138.8172  147.1455  155.2097 C.3     1  UNL1        0.1470
     30 O         137.6295  146.4570  154.6053 O.3     1  UNL1       -0.3787
     31 H         137.1256  147.0907  154.0712 H       1  UNL1        0.2108
     32 C         139.0589  148.6008  154.9382 C.ar    1  UNL1        0.0055
     33 C         139.8790  149.0166  153.7531 C.ar    1  UNL1       -0.0019
     34 C         140.1207  150.4719  153.4816 C.ar    1  UNL1       -0.0002
     35 C         139.5422  151.5115  154.3952 C.ar    1  UNL1       -0.0000
     36 C         138.7220  151.0957  155.5803 C.ar    1  UNL1       -0.0002
     37 C         138.4804  149.6404  155.8518 C.ar    1  UNL1       -0.0019
@<TRIPOS>BOND
     1     7     8    1
     2     8     9    1
     3     8    10    1
     4    10    11    1
     5    11    12    1
     6    12    13    1
     7    13    14    1
     8    14    15   am
     9    15    16    2
    10    15     1    1
    11     1     2   ar
    12     2     3   ar
    13     3     4   ar
    14     4    22    1
    15    23    22    1
    16    23    24    1
    17    24    25    1
    18    26    25    1
    19    26    29    1
    20    29    30    1
    21    29    32    1
    22    32    33   ar
    23    33    34   ar
    24    34    35   ar
    25    35    36   ar
    26    36    37   ar
    27    26    27    1
    28     4     5   ar
    29     5     6   ar
    30    14    17    1
    31    17    18    1
    32    11    19    1
    33    19    20    2
    34    19    21    1
    35    21     8    1
    36    18    11    1
    37     6     1   ar
    38    27    23    1
    39    37    32   ar
    40    30    31    1
    41    27    28    1
@<TRIPOS>MOLECULE
*****
 37 41 0 0 0
SMALL
GASTEIGER

@<TRIPOS>ATOM
      1 C         140.3425  138.2691  161.7714 C.ar    1  UNL1        0.0536
      2 C         139.7356  138.8793  160.5428 C.ar    1  UNL1        0.0042
      3 C         140.5455  138.9977  159.2858 C.ar    1  UNL1       -0.0041
      4 C         141.9623  138.5060  159.2574 C.ar    1  UNL1       -0.0208
      5 C         142.5693  137.8959  160.4860 C.ar    1  UNL1       -0.0041
      6 C         141.7594  137.7774  161.7429 C.ar    1  UNL1        0.0042
      7 C         143.3174  142.4245  167.8265 C.3     1  UNL1        0.0437
      8 C         142.0712  141.7290  168.2883 C.3     1  UNL1        0.1367
      9 C         142.3742  142.3939  169.5983 C.3     1  UNL1        0.0437
     10 C         142.0287  141.2095  166.8817 C.3     1  UNL1        0.0508
     11 C         140.8196  140.3318  166.7480 C.3     1  UNL1        0.0962
     12 C         141.6295  140.4503  165.4911 C.3     1  UNL1        0.0322
     13 C         141.2005  139.7233  164.2512 C.3     1  UNL1        0.0943
     14 N         139.9616  138.8777  164.2683 N.am    1  UNL1       -0.2761
     15 C         139.5326  138.1507  163.0283 C.2     1  UNL1        0.2490
     16 O         138.2937  137.3052  163.0455 O.2     1  UNL1       -0.2699
     17 C         139.1517  138.7593  165.5253 C.3     1  UNL1        0.0943
     18 C         139.5807  139.4863  166.7651 C.3     1  UNL1        0.0322
     19 C         140.1148  140.3090  168.0720 C.2     1  UNL1        0.3159
     20 O         138.8573  139.5550  168.3884 O.2     1  UNL1       -0.2501
     21 O         140.8883  141.1724  169.0239 O.3     1  UNL1       -0.4557
     22 C         142.7722  138.6245  158.0004 C.3     1  UNL1        0.0420
     23 C         142.9455  137.4337  157.1049 C.3     1  UNL1        0.0585
     24 C         143.7667  137.3860  155.8505 C.3     1  UNL1        0.0175
     25 C         143.6568  136.0043  155.2768 C.3     1  UNL1        0.0199
     26 C         142.7677  135.1982  156.1766 C.3     1  UNL1        0.0855
     27 N         142.3281  136.0816  157.3064 N.3     1  UNL1       -0.2971
     28 H         142.6389  135.6881  158.1946 H       1  UNL1        0.1233
     29 C         142.3853  133.7611  155.9809 C.3     1  UNL1        0.1470
     30 O         141.2032  133.4090  155.1273 O.3     1  UNL1       -0.3787
     31 H         141.0953  132.4453  155.1061 H       1  UNL1        0.2108
     32 C         143.1851  132.6760  156.6389 C.ar    1  UNL1        0.0055
     33 C         142.7300  131.2495  156.5494 C.ar    1  UNL1       -0.0019
     34 C         143.5298  130.1644  157.2073 C.ar    1  UNL1       -0.0002
     35 C         144.7847  130.5057  157.9548 C.ar    1  UNL1       -0.0000
     36 C         145.2398  131.9322  158.0443 C.ar    1  UNL1       -0.0002
     37 C         144.4400  133.0173  157.3863 C.ar    1  UNL1       -0.0019
@<TRIPOS>BOND
     1     7     8    1
     2     8     9    1
     3     8    10    1
     4    10    11    1
     5    11    12    1
     6    12    13    1
     7    13    14    1
     8    14    15   am
     9    15    16    2
    10    15     1    1
    11     1     2   ar
    12     2     3   ar
    13     3     4   ar
    14     4    22    1
    15    23    22    1
    16    23    24    1
    17    24    25    1
    18    26    25    1
    19    26    29    1
    20    29    30    1
    21    29    32    1
    22    32    33   ar
    23    33    34   ar
    24    34    35   ar
    25    35    36   ar
    26    36    37   ar
    27    26    27    1
    28     4     5   ar
    29     5     6   ar
    30    14    17    1
    31    17    18    1
    32    11    19    1
    33    19    20    2
    34    19    21    1
    35    21     8    1
    36    18    11    1
    37     6     1   ar
    38    27    23    1
    39    37    32   ar
    40    30    31    1
    41    27    28    1
@<TRIPOS>MOLECULE
*****
 37 41 0 0 0
SMALL
GASTEIGER

@<TRIPOS>ATOM
      1 C         142.3254  138.4090  159.1402 C.ar    1  UNL1        0.0536
      2 C         143.4234  139.4264  159.2359 C.ar    1  UNL1        0.0042
      3 C         144.0422  139.7392  160.5661 C.ar    1  UNL1       -0.0041
      4 C         143.5630  139.0345  161.8005 C.ar    1  UNL1       -0.0208
      5 C         142.4650  138.0171  161.7048 C.ar    1  UNL1       -0.0041
      6 C         141.8462  137.7043  160.3747 C.ar    1  UNL1        0.0042
      7 C         144.7533  131.5100  156.0922 C.3     1  UNL1        0.0437
      8 C         143.7798  132.1390  155.1401 C.3     1  UNL1        0.1367
      9 C         144.0371  130.9135  154.3143 C.3     1  UNL1        0.0437
     10 C         143.7259  133.2330  156.1650 C.3     1  UNL1        0.0508
     11 C         142.7729  134.2820  155.6736 C.3     1  UNL1        0.0962
     12 C         143.3917  134.5948  157.0037 C.3     1  UNL1        0.0322
     13 C         143.0363  135.8662  157.7159 C.3     1  UNL1        0.0943
     14 N         142.0620  136.8248  157.0979 N.am    1  UNL1       -0.2761
     15 C         141.7066  138.0962  157.8101 C.2     1  UNL1        0.2490
     16 O         140.7323  139.0549  157.1921 O.2     1  UNL1       -0.2699
     17 C         141.4432  136.5120  155.7678 C.3     1  UNL1        0.0943
     18 C         141.7986  135.2406  155.0557 C.3     1  UNL1        0.0322
     19 C         142.2377  133.8363  154.3451 C.2     1  UNL1        0.3159
     20 O         141.2532  134.5838  153.4955 O.2     1  UNL1       -0.2501
     21 O         142.8600  132.5119  154.0153 O.3     1  UNL1       -0.4557
     22 C         144.1818  139.3473  163.1306 C.3     1  UNL1        0.0420
     23 C         143.3302  139.3795  164.3650 C.3     1  UNL1        0.0585
     24 C         143.7107  138.8422  165.7129 C.3     1  UNL1        0.0175
     25 C         142.5642  139.0854  166.6492 C.3     1  UNL1        0.0199
     26 C         141.4753  139.7728  165.8800 C.3     1  UNL1        0.0855
     27 N         141.9487  139.9546  164.4683 N.3     1  UNL1       -0.2971
     28 H         141.9687  140.9474  164.2351 H       1  UNL1        0.1233
     29 C         140.1464  140.2030  166.4266 C.3     1  UNL1        0.1470
     30 O         138.8842  139.8396  165.7021 O.3     1  UNL1       -0.3787
     31 H         138.1208  140.1920  166.1858 H       1  UNL1        0.2108
     32 C         140.0796  140.9965  167.6978 C.ar    1  UNL1        0.0055
     33 C         139.4804  140.3882  168.9310 C.ar    1  UNL1       -0.0019
     34 C         139.4136  141.1817  170.2022 C.ar    1  UNL1       -0.0002
     35 C         139.9459  142.5835  170.2402 C.ar    1  UNL1       -0.0000
     36 C         140.5451  143.1918  169.0069 C.ar    1  UNL1       -0.0002
     37 C         140.6119  142.3983  167.7357 C.ar    1  UNL1       -0.0019
@<TRIPOS>BOND
     1     7     8    1
     2     8     9    1
     3     8    10    1
     4    10    11    1
     5    11    12    1
     6    12    13    1
     7    13    14    1
     8    14    15   am
     9    15    16    2
    10    15     1    1
    11     1     2   ar
    12     2     3   ar
    13     3     4   ar
    14     4    22    1
    15    23    22    1
    16    23    24    1
    17    24    25    1
    18    26    25    1
    19    26    29    1
    20    29    30    1
    21    29    32    1
    22    32    33   ar
    23    33    34   ar
    24    34    35   ar
    25    35    36   ar
    26    36    37   ar
    27    26    27    1
    28     4     5   ar
    29     5     6   ar
    30    14    17    1
    31    17    18    1
    32    11    19    1
    33    19    20    2
    34    19    21    1
    35    21     8    1
    36    18    11    1
    37     6     1   ar
    38    27    23    1
    39    37    32   ar
    40    30    31    1
    41    27    28    1
@<TRIPOS>MOLECULE
*****
 37 41 0 0 0
SMALL
GASTEIGER

@<TRIPOS>ATOM
      1 C         141.9968  138.7178  157.9886 C.ar    1  UNL1        0.0536
      2 C         141.5291  138.5165  159.3995 C.ar    1  UNL1        0.0042
      3 C         142.1968  139.2525  160.5232 C.ar    1  UNL1       -0.0041
      4 C         143.3321  140.1898  160.2359 C.ar    1  UNL1       -0.0208
      5 C         143.7998  140.3911  158.8249 C.ar    1  UNL1       -0.0041
      6 C         143.1322  139.6551  157.7013 C.ar    1  UNL1        0.0042
      7 C         145.2192  131.6285  156.5260 C.3     1  UNL1        0.0437
      8 C         144.0858  131.8470  155.5682 C.3     1  UNL1        0.1367
      9 C         144.4640  130.4888  155.0562 C.3     1  UNL1        0.0437
     10 C         143.9445  133.1596  156.2806 C.3     1  UNL1        0.0508
     11 C         142.8027  133.9054  155.6560 C.3     1  UNL1        0.0962
     12 C         143.4703  134.6414  156.7796 C.3     1  UNL1        0.0322
     13 C         142.9791  136.0001  157.1826 C.3     1  UNL1        0.0943
     14 N         141.8204  136.6230  156.4619 N.am    1  UNL1       -0.2761
     15 C         141.3292  137.9818  156.8649 C.2     1  UNL1        0.2490
     16 O         140.1705  138.6046  156.1443 O.2     1  UNL1       -0.2699
     17 C         141.1528  135.8870  155.3383 C.3     1  UNL1        0.0943
     18 C         141.6439  134.5282  154.9353 C.3     1  UNL1        0.0322
     19 C         142.2383  133.0538  154.5576 C.2     1  UNL1        0.3159
     20 O         141.0837  133.4116  153.6695 O.2     1  UNL1       -0.2501
     21 O         143.0313  131.7817  154.5034 O.3     1  UNL1       -0.4557
     22 C         143.9997  140.9257  161.3595 C.3     1  UNL1        0.0420
     23 C         143.8361  140.4469  162.7716 C.3     1  UNL1        0.0585
     24 C         144.7684  139.5284  163.5047 C.3     1  UNL1        0.0175
     25 C         144.2199  139.3163  164.8847 C.3     1  UNL1        0.0199
     26 C         142.9488  140.1037  165.0044 C.3     1  UNL1        0.0855
     27 N         142.7116  140.8024  163.6985 N.3     1  UNL1       -0.2971
     28 H         142.6896  141.8116  163.8448 H       1  UNL1        0.1233
     29 C         142.0694  140.1791  166.2172 C.3     1  UNL1        0.1470
     30 O         142.5321  140.9240  167.4341 O.3     1  UNL1       -0.3787
     31 H         141.8498  140.8754  168.1218 H       1  UNL1        0.2108
     32 C         140.7271  139.5095  166.2130 C.ar    1  UNL1        0.0055
     33 C         139.7044  139.8730  167.2483 C.ar    1  UNL1       -0.0019
     34 C         138.3621  139.2034  167.2441 C.ar    1  UNL1       -0.0002
     35 C         138.0425  138.1703  166.2046 C.ar    1  UNL1       -0.0000
     36 C         139.0652  137.8068  165.1693 C.ar    1  UNL1       -0.0002
     37 C         140.4075  138.4764  165.1735 C.ar    1  UNL1       -0.0019
@<TRIPOS>BOND
     1     7     8    1
     2     8     9    1
     3     8    10    1
     4    10    11    1
     5    11    12    1
     6    12    13    1
     7    13    14    1
     8    14    15   am
     9    15    16    2
    10    15     1    1
    11     1     2   ar
    12     2     3   ar
    13     3     4   ar
    14     4    22    1
    15    23    22    1
    16    23    24    1
    17    24    25    1
    18    26    25    1
    19    26    29    1
    20    29    30    1
    21    29    32    1
    22    32    33   ar
    23    33    34   ar
    24    34    35   ar
    25    35    36   ar
    26    36    37   ar
    27    26    27    1
    28     4     5   ar
    29     5     6   ar
    30    14    17    1
    31    17    18    1
    32    11    19    1
    33    19    20    2
    34    19    21    1
    35    21     8    1
    36    18    11    1
    37     6     1   ar
    38    27    23    1
    39    37    32   ar
    40    30    31    1
    41    27    28    1
@<TRIPOS>MOLECULE
*****
 37 41 0 0 0
SMALL
GASTEIGER

@<TRIPOS>ATOM
      1 C         140.1331  139.2154  157.3056 C.ar    1  UNL1        0.0536
      2 C         141.6124  139.4357  157.1907 C.ar    1  UNL1        0.0042
      3 C         142.4616  138.4505  156.4433 C.ar    1  UNL1       -0.0041
      4 C         141.8315  137.2452  155.8109 C.ar    1  UNL1       -0.0208
      5 C         140.3522  137.0249  155.9258 C.ar    1  UNL1       -0.0041
      6 C         139.5030  138.0099  156.6731 C.ar    1  UNL1        0.0042
      7 C         139.4236  137.5351  165.0162 C.3     1  UNL1        0.0437
      8 C         138.6452  138.7834  164.7237 C.3     1  UNL1        0.1367
      9 C         138.3242  138.7382  166.1883 C.3     1  UNL1        0.0437
     10 C         139.1289  138.5677  163.3202 C.3     1  UNL1        0.0508
     11 C         138.5823  139.6733  162.4664 C.3     1  UNL1        0.0962
     12 C         139.4315  138.6882  161.7191 C.3     1  UNL1        0.0322
     13 C         139.6654  138.8640  160.2480 C.3     1  UNL1        0.0943
     14 N         139.0500  140.0247  159.5241 N.am    1  UNL1       -0.2761
     15 C         139.2839  140.2004  158.0529 C.2     1  UNL1        0.2490
     16 O         138.6686  141.3612  157.3290 O.2     1  UNL1       -0.2699
     17 C         138.2009  141.0098  160.2714 C.3     1  UNL1        0.0943
     18 C         137.9670  140.8341  161.7426 C.3     1  UNL1        0.0322
     19 C         137.7608  140.5723  163.3422 C.2     1  UNL1        0.3159
     20 O         137.0289  141.8048  162.9004 O.2     1  UNL1       -0.2501
     21 O         137.7996  140.0224  164.7372 O.3     1  UNL1       -0.4557
     22 C         142.6807  136.2601  155.0636 C.3     1  UNL1        0.0420
     23 C         142.8771  134.8756  155.6063 C.3     1  UNL1        0.0585
     24 C         141.8690  133.7652  155.5752 C.3     1  UNL1        0.0175
     25 C         142.4850  132.5617  156.2251 C.3     1  UNL1        0.0199
     26 C         143.8736  132.9284  156.6579 C.3     1  UNL1        0.0855
     27 N         144.1159  134.3584  156.2755 N.3     1  UNL1       -0.2971
     28 H         144.9060  134.4158  155.6330 H       1  UNL1        0.1233
     29 C         144.8486  132.0238  157.3514 C.3     1  UNL1        0.1470
     30 O         145.9233  132.6054  158.2213 O.3     1  UNL1       -0.3787
     31 H         146.4631  131.8891  158.5908 H       1  UNL1        0.2108
     32 C         144.7490  130.5375  157.1749 C.ar    1  UNL1        0.0055
     33 C         144.5527  129.6519  158.3695 C.ar    1  UNL1       -0.0019
     34 C         144.4531  128.1656  158.1930 C.ar    1  UNL1       -0.0002
     35 C         144.5497  127.5650  156.8219 C.ar    1  UNL1       -0.0000
     36 C         144.7460  128.4506  155.6273 C.ar    1  UNL1       -0.0002
     37 C         144.8456  129.9369  155.8038 C.ar    1  UNL1       -0.0019
@<TRIPOS>BOND
     1     7     8    1
     2     8     9    1
     3     8    10    1
     4    10    11    1
     5    11    12    1
     6    12    13    1
     7    13    14    1
     8    14    15   am
     9    15    16    2
    10    15     1    1
    11     1     2   ar
    12     2     3   ar
    13     3     4   ar
    14     4    22    1
    15    23    22    1
    16    23    24    1
    17    24    25    1
    18    26    25    1
    19    26    29    1
    20    29    30    1
    21    29    32    1
    22    32    33   ar
    23    33    34   ar
    24    34    35   ar
    25    35    36   ar
    26    36    37   ar
    27    26    27    1
    28     4     5   ar
    29     5     6   ar
    30    14    17    1
    31    17    18    1
    32    11    19    1
    33    19    20    2
    34    19    21    1
    35    21     8    1
    36    18    11    1
    37     6     1   ar
    38    27    23    1
    39    37    32   ar
    40    30    31    1
    41    27    28    1
@<TRIPOS>MOLECULE
*****
 37 41 0 0 0
SMALL
GASTEIGER

@<TRIPOS>ATOM
      1 C         142.2159  138.4725  159.2613 C.ar    1  UNL1        0.0536
      2 C         143.4750  139.2866  159.3023 C.ar    1  UNL1        0.0042
      3 C         144.1000  139.6356  160.6206 C.ar    1  UNL1       -0.0041
      4 C         143.4658  139.1704  161.8978 C.ar    1  UNL1       -0.0208
      5 C         142.2066  138.3563  161.8568 C.ar    1  UNL1       -0.0041
      6 C         141.5816  138.0073  160.5386 C.ar    1  UNL1        0.0042
      7 C         144.7833  131.5891  156.2935 C.3     1  UNL1        0.0437
      8 C         143.7842  132.1786  155.3426 C.3     1  UNL1        0.1367
      9 C         144.0634  130.9471  154.5330 C.3     1  UNL1        0.0437
     10 C         143.7139  133.2869  156.3510 C.3     1  UNL1        0.0508
     11 C         142.7297  134.3040  155.8541 C.3     1  UNL1        0.0962
     12 C         143.3546  134.6529  157.1723 C.3     1  UNL1        0.0322
     13 C         142.9750  135.9261  157.8686 C.3     1  UNL1        0.0943
     14 N         141.9705  136.8503  157.2468 N.am    1  UNL1       -0.2761
     15 C         141.5909  138.1236  157.9432 C.2     1  UNL1        0.2490
     16 O         140.5864  139.0478  157.3213 O.2     1  UNL1       -0.2699
     17 C         141.3456  136.5014  155.9286 C.3     1  UNL1        0.0943
     18 C         141.7251  135.2282  155.2323 C.3     1  UNL1        0.0322
     19 C         142.1917  133.8243  154.5386 C.2     1  UNL1        0.3159
     20 O         141.1797  134.5336  153.6886 O.2     1  UNL1       -0.2501
     21 O         142.8434  132.5108  154.2225 O.3     1  UNL1       -0.4557
     22 C         144.0907  139.5193  163.2160 C.3     1  UNL1        0.0420
     23 C         143.2318  139.6719  164.4362 C.3     1  UNL1        0.0585
     24 C         143.2420  138.7758  165.6392 C.3     1  UNL1        0.0175
     25 C         142.2284  139.2974  166.6142 C.3     1  UNL1        0.0199
     26 C         141.5918  140.5157  166.0139 C.3     1  UNL1        0.0855
     27 N         142.2120  140.7472  164.6678 N.3     1  UNL1       -0.2971
     28 H         142.6627  141.6619  164.6471 H       1  UNL1        0.1233
     29 C         140.5229  141.3552  166.6483 C.3     1  UNL1        0.1470
     30 O         140.3510  141.3504  168.1384 O.3     1  UNL1       -0.3787
     31 H         139.6218  141.9420  168.3816 H       1  UNL1        0.2108
     32 C         139.6258  142.1996  165.7925 C.ar    1  UNL1        0.0055
     33 C         139.7323  143.6949  165.8417 C.ar    1  UNL1       -0.0019
     34 C         138.8352  144.5393  164.9859 C.ar    1  UNL1       -0.0002
     35 C         137.8316  143.8883  164.0810 C.ar    1  UNL1       -0.0000
     36 C         137.7251  142.3929  164.0319 C.ar    1  UNL1       -0.0002
     37 C         138.6222  141.5485  164.8876 C.ar    1  UNL1       -0.0019
@<TRIPOS>BOND
     1     7     8    1
     2     8     9    1
     3     8    10    1
     4    10    11    1
     5    11    12    1
     6    12    13    1
     7    13    14    1
     8    14    15   am
     9    15    16    2
    10    15     1    1
    11     1     2   ar
    12     2     3   ar
    13     3     4   ar
    14     4    22    1
    15    23    22    1
    16    23    24    1
    17    24    25    1
    18    26    25    1
    19    26    29    1
    20    29    30    1
    21    29    32    1
    22    32    33   ar
    23    33    34   ar
    24    34    35   ar
    25    35    36   ar
    26    36    37   ar
    27    26    27    1
    28     4     5   ar
    29     5     6   ar
    30    14    17    1
    31    17    18    1
    32    11    19    1
    33    19    20    2
    34    19    21    1
    35    21     8    1
    36    18    11    1
    37     6     1   ar
    38    27    23    1
    39    37    32   ar
    40    30    31    1
    41    27    28    1
@<TRIPOS>MOLECULE
*****
 37 41 0 0 0
SMALL
GASTEIGER

@<TRIPOS>ATOM
      1 C         141.9651  138.6130  156.6830 C.ar    1  UNL1        0.0536
      2 C         141.5425  138.9334  158.0861 C.ar    1  UNL1        0.0042
      3 C         142.2053  140.0536  158.8317 C.ar    1  UNL1       -0.0041
      4 C         143.2907  140.8534  158.1742 C.ar    1  UNL1       -0.0208
      5 C         143.7133  140.5329  156.7711 C.ar    1  UNL1       -0.0041
      6 C         143.0506  139.4128  156.0255 C.ar    1  UNL1        0.0042
      7 C         145.2326  131.5344  158.0969 C.3     1  UNL1        0.0437
      8 C         144.0979  131.3549  157.1324 C.3     1  UNL1        0.1367
      9 C         144.4848  129.9069  157.1904 C.3     1  UNL1        0.0437
     10 C         143.9482  132.8406  157.2761 C.3     1  UNL1        0.0508
     11 C         142.8019  133.2767  156.4125 C.3     1  UNL1        0.0962
     12 C         143.4646  134.3968  157.1581 C.3     1  UNL1        0.0322
     13 C         142.9648  135.8022  156.9997 C.3     1  UNL1        0.0943
     14 N         141.8022  136.0873  156.0957 N.am    1  UNL1       -0.2761
     15 C         141.3024  137.4928  155.9374 C.2     1  UNL1        0.2490
     16 O         140.1399  137.7780  155.0334 O.2     1  UNL1       -0.2699
     17 C         141.1395  134.9672  155.3501 C.3     1  UNL1        0.0943
     18 C         141.6393  133.5618  155.5085 C.3     1  UNL1        0.0322
     19 C         142.2431  132.0605  155.7351 C.2     1  UNL1        0.3159
     20 O         141.0864  132.0363  154.7804 O.2     1  UNL1       -0.2501
     21 O         143.0441  130.8729  156.1800 O.3     1  UNL1       -0.4557
     22 C         143.9534  141.9735  158.9198 C.3     1  UNL1        0.0420
     23 C         143.1254  142.9361  159.7185 C.3     1  UNL1        0.0585
     24 C         142.0112  143.7902  159.1899 C.3     1  UNL1        0.0175
     25 C         141.4634  144.5956  160.3307 C.3     1  UNL1        0.0199
     26 C         142.2390  144.2392  161.5643 C.3     1  UNL1        0.0855
     27 N         143.2661  143.2136  161.1858 N.3     1  UNL1       -0.2971
     28 H         143.1113  142.3565  161.7166 H       1  UNL1        0.1233
     29 C         142.0249  144.8085  162.9354 C.3     1  UNL1        0.1470
     30 O         141.3258  146.1254  163.0999 O.3     1  UNL1       -0.3787
     31 H         141.2706  146.3465  164.0428 H       1  UNL1        0.2108
     32 C         142.5100  144.0609  164.1419 C.ar    1  UNL1        0.0055
     33 C         141.5436  143.2696  164.9725 C.ar    1  UNL1       -0.0019
     34 C         142.0286  142.5220  166.1791 C.ar    1  UNL1       -0.0002
     35 C         143.4801  142.5657  166.5551 C.ar    1  UNL1       -0.0000
     36 C         144.4465  143.3570  165.7245 C.ar    1  UNL1       -0.0002
     37 C         143.9614  144.1046  164.5180 C.ar    1  UNL1       -0.0019
@<TRIPOS>BOND
     1     7     8    1
     2     8     9    1
     3     8    10    1
     4    10    11    1
     5    11    12    1
     6    12    13    1
     7    13    14    1
     8    14    15   am
     9    15    16    2
    10    15     1    1
    11     1     2   ar
    12     2     3   ar
    13     3     4   ar
    14     4    22    1
    15    23    22    1
    16    23    24    1
    17    24    25    1
    18    26    25    1
    19    26    29    1
    20    29    30    1
    21    29    32    1
    22    32    33   ar
    23    33    34   ar
    24    34    35   ar
    25    35    36   ar
    26    36    37   ar
    27    26    27    1
    28     4     5   ar
    29     5     6   ar
    30    14    17    1
    31    17    18    1
    32    11    19    1
    33    19    20    2
    34    19    21    1
    35    21     8    1
    36    18    11    1
    37     6     1   ar
    38    27    23    1
    39    37    32   ar
    40    30    31    1
    41    27    28    1
@<TRIPOS>MOLECULE
*****
 37 41 0 0 0
SMALL
GASTEIGER

@<TRIPOS>ATOM
      1 C         140.0997  144.9576  162.6237 C.ar    1  UNL1        0.0536
      2 C         141.3859  144.8608  163.3895 C.ar    1  UNL1        0.0042
      3 C         141.4010  144.2400  164.7549 C.ar    1  UNL1       -0.0041
      4 C         140.1299  143.7159  165.3546 C.ar    1  UNL1       -0.0208
      5 C         138.8437  143.8127  164.5889 C.ar    1  UNL1       -0.0041
      6 C         138.8286  144.4335  163.2235 C.ar    1  UNL1        0.0042
      7 C         144.6890  141.1616  157.3978 C.3     1  UNL1        0.0437
      8 C         144.0403  142.3259  156.7097 C.3     1  UNL1        0.1367
      9 C         144.8022  141.8408  155.5122 C.3     1  UNL1        0.0437
     10 C         143.4139  142.5676  158.0512 C.3     1  UNL1        0.0508
     11 C         142.5374  143.7799  157.9418 C.3     1  UNL1        0.0962
     12 C         142.5525  143.1591  159.3072 C.3     1  UNL1        0.0322
     13 C         141.7349  143.7586  160.4127 C.3     1  UNL1        0.0943
     14 N         140.9022  144.9789  160.1528 N.am    1  UNL1       -0.2761
     15 C         140.0846  145.5784  161.2584 C.2     1  UNL1        0.2490
     16 O         139.2519  146.7986  160.9985 O.2     1  UNL1       -0.2699
     17 C         140.8871  145.5997  158.7874 C.3     1  UNL1        0.0943
     18 C         141.7047  145.0002  157.6819 C.3     1  UNL1        0.0322
     19 C         142.6220  144.2875  156.5328 C.2     1  UNL1        0.3159
     20 O         141.9038  145.4836  155.9820 O.2     1  UNL1       -0.2501
     21 O         143.5508  143.3889  155.7713 O.3     1  UNL1       -0.4557
     22 C         140.1450  143.0951  166.7200 C.3     1  UNL1        0.0420
     23 C         141.0144  141.9035  166.9925 C.3     1  UNL1        0.0585
     24 C         141.4804  141.4422  168.3417 C.3     1  UNL1        0.0175
     25 C         142.3245  140.2176  168.1467 C.3     1  UNL1        0.0199
     26 C         142.3800  139.9220  166.6771 C.3     1  UNL1        0.0855
     27 N         141.5703  140.9640  165.9639 N.3     1  UNL1       -0.2971
     28 H         140.8076  140.5197  165.4527 H       1  UNL1        0.1233
     29 C         143.1160  138.7843  166.0339 C.3     1  UNL1        0.1470
     30 O         144.1077  137.9876  166.8288 O.3     1  UNL1       -0.3787
     31 H         144.4905  137.2953  166.2675 H       1  UNL1        0.2108
     32 C         142.8603  138.4432  164.5958 C.ar    1  UNL1        0.0055
     33 C         141.6146  137.7015  164.2109 C.ar    1  UNL1       -0.0019
     34 C         141.3589  137.3604  162.7727 C.ar    1  UNL1       -0.0002
     35 C         142.3488  137.7611  161.7194 C.ar    1  UNL1       -0.0000
     36 C         143.5945  138.5028  162.1043 C.ar    1  UNL1       -0.0002
     37 C         143.8502  138.8439  163.5424 C.ar    1  UNL1       -0.0019
@<TRIPOS>BOND
     1     7     8    1
     2     8     9    1
     3     8    10    1
     4    10    11    1
     5    11    12    1
     6    12    13    1
     7    13    14    1
     8    14    15   am
     9    15    16    2
    10    15     1    1
    11     1     2   ar
    12     2     3   ar
    13     3     4   ar
    14     4    22    1
    15    23    22    1
    16    23    24    1
    17    24    25    1
    18    26    25    1
    19    26    29    1
    20    29    30    1
    21    29    32    1
    22    32    33   ar
    23    33    34   ar
    24    34    35   ar
    25    35    36   ar
    26    36    37   ar
    27    26    27    1
    28     4     5   ar
    29     5     6   ar
    30    14    17    1
    31    17    18    1
    32    11    19    1
    33    19    20    2
    34    19    21    1
    35    21     8    1
    36    18    11    1
    37     6     1   ar
    38    27    23    1
    39    37    32   ar
    40    30    31    1
    41    27    28    1
@<TRIPOS>MOLECULE
*****
 37 41 0 0 0
SMALL
GASTEIGER

@<TRIPOS>ATOM
      1 C         141.8432  138.1979  156.6701 C.ar    1  UNL1        0.0536
      2 C         140.7489  138.2255  157.6956 C.ar    1  UNL1        0.0042
      3 C         140.8736  139.1084  158.9020 C.ar    1  UNL1       -0.0041
      4 C         142.0926  139.9635  159.0827 C.ar    1  UNL1       -0.0208
      5 C         143.1869  139.9359  158.0572 C.ar    1  UNL1       -0.0041
      6 C         143.0623  139.0531  156.8510 C.ar    1  UNL1        0.0042
      7 C         144.7845  130.9254  157.7842 C.3     1  UNL1        0.0437
      8 C         144.2501  131.0177  156.3857 C.3     1  UNL1        0.1367
      9 C         144.7110  129.5939  156.2838 C.3     1  UNL1        0.0437
     10 C         143.9009  132.4222  156.7801 C.3     1  UNL1        0.0508
     11 C         143.2471  133.0850  155.6040 C.3     1  UNL1        0.0962
     12 C         143.3717  133.9678  156.8102 C.3     1  UNL1        0.0322
     13 C         142.8622  135.3778  156.7635 C.3     1  UNL1        0.0943
     14 N         142.2281  135.9050  155.5105 N.am    1  UNL1       -0.2761
     15 C         141.7186  137.3151  155.4639 C.2     1  UNL1        0.2490
     16 O         141.0845  137.8424  154.2109 O.2     1  UNL1       -0.2699
     17 C         142.1035  135.0222  154.3043 C.3     1  UNL1        0.0943
     18 C         142.6129  133.6122  154.3510 C.3     1  UNL1        0.0322
     19 C         143.1921  132.0900  154.4827 C.2     1  UNL1        0.3159
     20 O         142.6181  132.3306  153.1180 O.2     1  UNL1       -0.2501
     21 O         143.8120  130.8124  154.9658 O.3     1  UNL1       -0.4557
     22 C         142.2172  140.8463  160.2890 C.3     1  UNL1        0.0420
     23 C         140.9850  141.3520  160.9789 C.3     1  UNL1        0.0585
     24 C         140.2763  142.6411  160.6853 C.3     1  UNL1        0.0175
     25 C         139.0984  142.7431  161.6085 C.3     1  UNL1        0.0199
     26 C         139.0791  141.5172  162.4725 C.3     1  UNL1        0.0855
     27 N         140.2450  140.6574  162.0834 N.3     1  UNL1       -0.2971
     28 H         139.9125  139.7491  161.7596 H       1  UNL1        0.1233
     29 C         138.0709  141.2057  163.5385 C.3     1  UNL1        0.1470
     30 O         136.6051  141.3138  163.2390 O.3     1  UNL1       -0.3787
     31 H         136.0953  141.0798  164.0304 H       1  UNL1        0.2108
     32 C         138.5285  140.7861  164.9040 C.ar    1  UNL1        0.0055
     33 C         138.0350  139.5003  165.4981 C.ar    1  UNL1       -0.0019
     34 C         138.4926  139.0807  166.8637 C.ar    1  UNL1       -0.0002
     35 C         139.4437  139.9470  167.6350 C.ar    1  UNL1       -0.0000
     36 C         139.9371  141.2329  167.0409 C.ar    1  UNL1       -0.0002
     37 C         139.4795  141.6524  165.6754 C.ar    1  UNL1       -0.0019
@<TRIPOS>BOND
     1     7     8    1
     2     8     9    1
     3     8    10    1
     4    10    11    1
     5    11    12    1
     6    12    13    1
     7    13    14    1
     8    14    15   am
     9    15    16    2
    10    15     1    1
    11     1     2   ar
    12     2     3   ar
    13     3     4   ar
    14     4    22    1
    15    23    22    1
    16    23    24    1
    17    24    25    1
    18    26    25    1
    19    26    29    1
    20    29    30    1
    21    29    32    1
    22    32    33   ar
    23    33    34   ar
    24    34    35   ar
    25    35    36   ar
    26    36    37   ar
    27    26    27    1
    28     4     5   ar
    29     5     6   ar
    30    14    17    1
    31    17    18    1
    32    11    19    1
    33    19    20    2
    34    19    21    1
    35    21     8    1
    36    18    11    1
    37     6     1   ar
    38    27    23    1
    39    37    32   ar
    40    30    31    1
    41    27    28    1
