@<TRIPOS>MOLECULE
*****
 35 39 0 0 0
SMALL
GASTEIGER

@<TRIPOS>ATOM
      1 N         138.5546  139.2737  165.0475 N.3     1  UNL1       -0.2704
      2 C         138.0228  140.4571  164.2947 C.3     1  UNL1        0.0722
      3 C         138.0642  140.4724  162.7953 C.3     1  UNL1        0.0191
      4 C         138.6374  139.3044  162.0489 C.3     1  UNL1        0.0226
      5 C         139.1691  138.1210  162.8017 C.3     1  UNL1        0.0191
      6 C         139.1277  138.1057  164.3010 C.3     1  UNL1        0.0722
      7 C         139.1778  138.2151  161.1705 C.3     1  UNL1        0.0232
      8 C         139.0200  138.6493  159.7434 C.3     1  UNL1        0.0922
      9 N         138.3821  140.0069  159.7397 N.pl3   1  UNL1       -0.2932
     10 C         138.1456  140.4118  161.1645 C.3     1  UNL1        0.0922
     11 C         138.0406  140.8173  158.5246 C.ar    1  UNL1        0.1318
     12 C         138.7472  142.1148  158.2656 C.ar    1  UNL1        0.0356
     13 C         138.4057  142.9252  157.0504 C.ar    1  UNL1        0.0228
     14 C         137.3576  142.4381  156.0942 C.ar    1  UNL1        0.1249
     15 C         136.6510  141.1405  156.3532 C.ar    1  UNL1        0.1186
     16 N         136.9925  140.3301  157.5684 N.ar    1  UNL1       -0.2278
     17 S         137.0161  143.2485  154.8791 S.O2    1  UNL1        0.0119
     18 C         136.6746  144.0589  153.6639 C.3     1  UNL1        0.1816
     19 O         137.0560  144.5012  155.7033 O.2     1  UNL1       -0.1685
     20 O         136.9762  141.9959  154.0549 O.2     1  UNL1       -0.1685
     21 C         138.5132  139.2583  166.5469 C.3     1  UNL1        0.1063
     22 C         139.6937  139.7437  167.3348 C.3     1  UNL1        0.1483
     23 O         139.6208  139.8091  168.8316 O.3     1  UNL1       -0.3786
     24 H         140.4618  140.1419  169.1820 H       1  UNL1        0.2108
     25 C         140.0591  142.6022  166.5006 C.3     1  UNL1        0.0306
     26 C         141.1298  141.5930  166.2088 C.ar    1  UNL1       -0.0238
     27 C         140.9471  140.1638  166.6259 C.ar    1  UNL1        0.0015
     28 C         142.0178  139.1546  166.3341 C.ar    1  UNL1       -0.0020
     29 C         143.2712  139.5746  165.6252 C.ar    1  UNL1        0.0060
     30 C         143.4539  141.0038  165.2081 C.ar    1  UNL1        0.0748
     31 C         142.3832  142.0130  165.4999 C.ar    1  UNL1        0.0233
     32 C         142.8409  143.3402  164.9718 C.3     1  UNL1        0.2352
     33 O         144.1945  143.1514  164.3536 O.3     1  UNL1       -0.4404
     34 C         144.5733  141.7074  164.4997 C.2     1  UNL1        0.3413
     35 O         145.8478  141.0775  164.0213 O.2     1  UNL1       -0.2449
@<TRIPOS>BOND
     1    25    26    1
     2    26    27   ar
     3    27    22    1
     4    22    23    1
     5    22    21    1
     6    21     1    1
     7     1     2    1
     8     2     3    1
     9     3     4    1
    10     4     5    1
    11     5     6    1
    12     4     7    1
    13     7     8    1
    14     8     9    1
    15     9    11    1
    16    11    12   ar
    17    12    13   ar
    18    13    14   ar
    19    14    17    1
    20    17    18    1
    21    17    19    2
    22    17    20    2
    23    14    15   ar
    24    15    16   ar
    25     9    10    1
    26    27    28   ar
    27    28    29   ar
    28    29    30   ar
    29    30    31   ar
    30    31    32    1
    31    32    33    1
    32    33    34    1
    33    34    35    2
    34    31    26   ar
    35     6     1    1
    36    16    11   ar
    37    34    30    1
    38    10     4    1
    39    23    24    1
@<TRIPOS>MOLECULE
*****
 35 39 0 0 0
SMALL
GASTEIGER

@<TRIPOS>ATOM
      1 N         143.3844  139.8251  163.3712 N.3     1  UNL1       -0.2704
      2 C         142.9335  138.4540  162.9629 C.3     1  UNL1        0.0722
      3 C         142.8473  138.0948  161.5091 C.3     1  UNL1        0.0191
      4 C         143.2120  139.1067  160.4636 C.3     1  UNL1        0.0226
      5 C         143.6630  140.4778  160.8719 C.3     1  UNL1        0.0191
      6 C         143.7492  140.8370  162.3257 C.3     1  UNL1        0.0722
      7 C         143.5424  140.0086  159.3115 C.3     1  UNL1        0.0232
      8 C         143.3149  139.2418  158.0424 C.3     1  UNL1        0.0922
      9 N         142.8439  137.8660  158.4103 N.pl3   1  UNL1       -0.2932
     10 C         142.7803  137.7825  159.9067 C.3     1  UNL1        0.0922
     11 C         142.4973  136.7668  157.4505 C.ar    1  UNL1        0.1318
     12 C         141.4313  136.9816  156.4173 C.ar    1  UNL1        0.0356
     13 C         141.0847  135.8823  155.4574 C.ar    1  UNL1        0.0228
     14 C         141.8041  134.5681  155.5306 C.ar    1  UNL1        0.1249
     15 C         142.8702  134.3532  156.5639 C.ar    1  UNL1        0.1186
     16 N         143.2167  135.4526  157.5237 N.ar    1  UNL1       -0.2278
     17 S         141.4575  133.4688  154.5707 S.O2    1  UNL1        0.0119
     18 C         141.1109  132.3695  153.6108 C.3     1  UNL1        0.1816
     19 O         141.2204  134.4847  153.4929 O.2     1  UNL1       -0.1685
     20 O         141.6947  132.4530  155.6485 O.2     1  UNL1       -0.1685
     21 C         143.4707  140.1843  164.8250 C.3     1  UNL1        0.1063
     22 C         142.6190  141.2891  165.3764 C.3     1  UNL1        0.1483
     23 O         142.6780  142.6578  164.7655 O.3     1  UNL1       -0.3786
     24 H         142.0703  143.2488  165.2370 H       1  UNL1        0.2108
     25 C         143.3308  142.3168  168.1035 C.3     1  UNL1        0.0306
     26 C         142.0641  141.5391  167.9022 C.ar    1  UNL1       -0.0238
     27 C         141.7082  141.0252  166.5387 C.ar    1  UNL1        0.0015
     28 C         140.4414  140.2474  166.3374 C.ar    1  UNL1       -0.0020
     29 C         139.5306  139.9835  167.4996 C.ar    1  UNL1        0.0060
     30 C         139.8866  140.4974  168.8631 C.ar    1  UNL1        0.0748
     31 C         141.1533  141.2752  169.0644 C.ar    1  UNL1        0.0233
     32 C         141.2400  141.6527  170.5135 C.3     1  UNL1        0.2352
     33 O         140.0269  141.1084  171.2078 O.3     1  UNL1       -0.4404
     34 C         139.1905  140.3943  170.1878 C.2     1  UNL1        0.3413
     35 O         137.8867  139.6992  170.4469 O.2     1  UNL1       -0.2449
@<TRIPOS>BOND
     1    25    26    1
     2    26    27   ar
     3    27    22    1
     4    22    23    1
     5    22    21    1
     6    21     1    1
     7     1     2    1
     8     2     3    1
     9     3     4    1
    10     4     5    1
    11     5     6    1
    12     4     7    1
    13     7     8    1
    14     8     9    1
    15     9    11    1
    16    11    12   ar
    17    12    13   ar
    18    13    14   ar
    19    14    17    1
    20    17    18    1
    21    17    19    2
    22    17    20    2
    23    14    15   ar
    24    15    16   ar
    25     9    10    1
    26    27    28   ar
    27    28    29   ar
    28    29    30   ar
    29    30    31   ar
    30    31    32    1
    31    32    33    1
    32    33    34    1
    33    34    35    2
    34    31    26   ar
    35     6     1    1
    36    16    11   ar
    37    34    30    1
    38    10     4    1
    39    23    24    1
@<TRIPOS>MOLECULE
*****
 35 39 0 0 0
SMALL
GASTEIGER

@<TRIPOS>ATOM
      1 N         139.9122  137.8177  164.0778 N.3     1  UNL1       -0.2704
      2 C         139.4591  137.8833  162.6494 C.3     1  UNL1        0.0722
      3 C         140.4577  138.1224  161.5560 C.3     1  UNL1        0.0191
      4 C         141.9095  138.2958  161.8910 C.3     1  UNL1        0.0226
      5 C         142.3626  138.2302  163.3194 C.3     1  UNL1        0.0191
      6 C         141.3640  137.9912  164.4128 C.3     1  UNL1        0.0722
      7 C         143.3862  138.4867  162.0719 C.3     1  UNL1        0.0232
      8 C         143.9962  138.6948  160.7173 C.3     1  UNL1        0.0922
      9 N         142.8963  138.6325  159.6993 N.pl3   1  UNL1       -0.2932
     10 C         141.6067  138.3859  160.4246 C.3     1  UNL1        0.0922
     11 C         143.0577  138.7893  158.2163 C.ar    1  UNL1        0.1318
     12 C         143.1205  140.1596  157.6094 C.ar    1  UNL1        0.0356
     13 C         143.2820  140.3164  156.1264 C.ar    1  UNL1        0.0228
     14 C         143.3805  139.1029  155.2502 C.ar    1  UNL1        0.1249
     15 C         143.3177  137.7325  155.8571 C.ar    1  UNL1        0.1186
     16 N         143.1563  137.5758  157.3401 N.ar    1  UNL1       -0.2278
     17 S         143.5420  139.2596  153.7672 S.O2    1  UNL1        0.0119
     18 C         143.7034  139.4164  152.2841 C.3     1  UNL1        0.1816
     19 O         142.0569  139.1406  153.5929 O.2     1  UNL1       -0.1685
     20 O         145.0270  139.3787  153.9414 O.2     1  UNL1       -0.1685
     21 C         138.9136  137.5787  165.1713 C.3     1  UNL1        0.1063
     22 C         138.1823  138.7355  165.7851 C.3     1  UNL1        0.1483
     23 O         137.3345  138.5250  167.0046 O.3     1  UNL1       -0.3786
     24 H         136.9353  139.3682  167.2704 H       1  UNL1        0.2108
     25 C         140.0673  140.7458  166.9708 C.3     1  UNL1        0.0306
     26 C         139.2411  141.1080  165.7723 C.ar    1  UNL1       -0.0238
     27 C         138.2986  140.1029  165.1795 C.ar    1  UNL1        0.0015
     28 C         137.4724  140.4652  163.9811 C.ar    1  UNL1       -0.0020
     29 C         137.5888  141.8325  163.3755 C.ar    1  UNL1        0.0060
     30 C         138.5312  142.8376  163.9683 C.ar    1  UNL1        0.0748
     31 C         139.3574  142.4754  165.1667 C.ar    1  UNL1        0.0233
     32 C         140.1941  143.6661  165.5300 C.3     1  UNL1        0.2352
     33 O         139.8851  144.7643  164.5561 O.3     1  UNL1       -0.4404
     34 C         138.8574  144.2523  163.5910 C.2     1  UNL1        0.3413
     35 O         138.2605  145.0200  162.4489 O.2     1  UNL1       -0.2449
@<TRIPOS>BOND
     1    25    26    1
     2    26    27   ar
     3    27    22    1
     4    22    23    1
     5    22    21    1
     6    21     1    1
     7     1     2    1
     8     2     3    1
     9     3     4    1
    10     4     5    1
    11     5     6    1
    12     4     7    1
    13     7     8    1
    14     8     9    1
    15     9    11    1
    16    11    12   ar
    17    12    13   ar
    18    13    14   ar
    19    14    17    1
    20    17    18    1
    21    17    19    2
    22    17    20    2
    23    14    15   ar
    24    15    16   ar
    25     9    10    1
    26    27    28   ar
    27    28    29   ar
    28    29    30   ar
    29    30    31   ar
    30    31    32    1
    31    32    33    1
    32    33    34    1
    33    34    35    2
    34    31    26   ar
    35     6     1    1
    36    16    11   ar
    37    34    30    1
    38    10     4    1
    39    23    24    1
@<TRIPOS>MOLECULE
*****
 35 39 0 0 0
SMALL
GASTEIGER

@<TRIPOS>ATOM
      1 N         144.4170  141.6923  162.0817 N.3     1  UNL1       -0.2704
      2 C         144.2539  140.2025  162.0202 C.3     1  UNL1        0.0722
      3 C         143.8275  139.5469  160.7403 C.3     1  UNL1        0.0191
      4 C         143.5640  140.3811  159.5218 C.3     1  UNL1        0.0226
      5 C         143.7270  141.8709  159.5833 C.3     1  UNL1        0.0191
      6 C         144.1535  142.5265  160.8632 C.3     1  UNL1        0.0722
      7 C         143.2664  141.0812  158.2291 C.3     1  UNL1        0.0232
      8 C         142.8787  140.0430  157.2181 C.3     1  UNL1        0.0922
      9 N         142.9367  138.7012  157.8862 N.pl3   1  UNL1       -0.2932
     10 C         143.3602  138.9101  159.3099 C.3     1  UNL1        0.0922
     11 C         142.6258  137.3821  157.2434 C.ar    1  UNL1        0.1318
     12 C         141.5688  137.2954  156.1826 C.ar    1  UNL1        0.0356
     13 C         141.2579  135.9762  155.5398 C.ar    1  UNL1        0.0228
     14 C         142.0039  134.7438  155.9578 C.ar    1  UNL1        0.1249
     15 C         143.0609  134.8306  157.0186 C.ar    1  UNL1        0.1186
     16 N         143.3717  136.1497  157.6614 N.ar    1  UNL1       -0.2278
     17 S         141.6929  133.4247  155.3149 S.O2    1  UNL1        0.0119
     18 C         141.3820  132.1055  154.6721 C.3     1  UNL1        0.1816
     19 O         142.2316  132.7109  156.5192 O.2     1  UNL1       -0.1685
     20 O         141.1543  134.1385  154.1107 O.2     1  UNL1       -0.1685
     21 C         144.8434  142.3480  163.3616 C.3     1  UNL1        0.1063
     22 C         143.8144  142.7628  164.3710 C.3     1  UNL1        0.1483
     23 O         144.2433  143.2382  165.7275 O.3     1  UNL1       -0.3786
     24 H         143.4602  143.4653  166.2530 H       1  UNL1        0.2108
     25 C         142.3737  145.2476  163.5049 C.3     1  UNL1        0.0306
     26 C         141.6360  143.9444  163.5910 C.ar    1  UNL1       -0.0238
     27 C         142.3563  142.7020  164.0240 C.ar    1  UNL1        0.0015
     28 C         141.6185  141.3988  164.1100 C.ar    1  UNL1       -0.0020
     29 C         140.1605  141.3380  163.7631 C.ar    1  UNL1        0.0060
     30 C         139.4402  142.5804  163.3300 C.ar    1  UNL1        0.0748
     31 C         140.1780  143.8836  163.2440 C.ar    1  UNL1        0.0233
     32 C         139.2098  144.9352  162.7891 C.3     1  UNL1        0.2352
     33 O         137.8737  144.2819  162.5940 O.3     1  UNL1       -0.4404
     34 C         138.0162  142.8266  162.9283 C.2     1  UNL1        0.3413
     35 O         136.9259  141.7980  162.8709 O.2     1  UNL1       -0.2449
@<TRIPOS>BOND
     1    25    26    1
     2    26    27   ar
     3    27    22    1
     4    22    23    1
     5    22    21    1
     6    21     1    1
     7     1     2    1
     8     2     3    1
     9     3     4    1
    10     4     5    1
    11     5     6    1
    12     4     7    1
    13     7     8    1
    14     8     9    1
    15     9    11    1
    16    11    12   ar
    17    12    13   ar
    18    13    14   ar
    19    14    17    1
    20    17    18    1
    21    17    19    2
    22    17    20    2
    23    14    15   ar
    24    15    16   ar
    25     9    10    1
    26    27    28   ar
    27    28    29   ar
    28    29    30   ar
    29    30    31   ar
    30    31    32    1
    31    32    33    1
    32    33    34    1
    33    34    35    2
    34    31    26   ar
    35     6     1    1
    36    16    11   ar
    37    34    30    1
    38    10     4    1
    39    23    24    1
@<TRIPOS>MOLECULE
*****
 35 39 0 0 0
SMALL
GASTEIGER

@<TRIPOS>ATOM
      1 N         138.2554  140.2716  163.5754 N.3     1  UNL1       -0.2704
      2 C         138.5477  141.6967  163.2102 C.3     1  UNL1        0.0722
      3 C         138.6831  142.0888  161.7687 C.3     1  UNL1        0.0191
      4 C         138.5262  141.0558  160.6925 C.3     1  UNL1        0.0226
      5 C         138.2339  139.6307  161.0577 C.3     1  UNL1        0.0191
      6 C         138.0985  139.2385  162.4992 C.3     1  UNL1        0.0722
      7 C         138.3960  140.1381  159.5131 C.3     1  UNL1        0.0232
      8 C         138.6050  140.9497  158.2690 C.3     1  UNL1        0.0922
      9 N         138.8644  142.3690  158.6795 N.pl3   1  UNL1       -0.2932
     10 C         138.8157  142.4346  160.1772 C.3     1  UNL1        0.0922
     11 C         139.1264  143.5204  157.7546 C.ar    1  UNL1        0.1318
     12 C         140.0945  144.5954  158.1509 C.ar    1  UNL1        0.0356
     13 C         140.3565  145.7469  157.2260 C.ar    1  UNL1        0.0228
     14 C         139.6504  145.8234  155.9048 C.ar    1  UNL1        0.1249
     15 C         138.6822  144.7483  155.5085 C.ar    1  UNL1        0.1186
     16 N         138.4202  143.5969  156.4334 N.ar    1  UNL1       -0.2278
     17 S         139.9124  146.9748  154.9799 S.O2    1  UNL1        0.0119
     18 C         140.1745  148.1263  154.0549 C.3     1  UNL1        0.1816
     19 O         138.7854  147.7378  155.6105 O.2     1  UNL1       -0.1685
     20 O         141.0394  146.2119  154.3493 O.2     1  UNL1       -0.1685
     21 C         138.1199  139.8794  165.0169 C.3     1  UNL1        0.1063
     22 C         139.3181  139.3948  165.7781 C.3     1  UNL1        0.1483
     23 O         140.1412  138.2624  165.2396 O.3     1  UNL1       -0.3786
     24 H         140.8725  138.0758  165.8490 H       1  UNL1        0.2108
     25 C         141.6747  141.2469  165.9060 C.3     1  UNL1        0.0306
     26 C         140.8715  140.9688  167.1419 C.ar    1  UNL1       -0.0238
     27 C         139.6932  140.0427  167.0780 C.ar    1  UNL1        0.0015
     28 C         138.8900  139.7646  168.3139 C.ar    1  UNL1       -0.0020
     29 C         139.2651  140.4124  169.6138 C.ar    1  UNL1        0.0060
     30 C         140.4434  141.3384  169.6777 C.ar    1  UNL1        0.0748
     31 C         141.2466  141.6166  168.4417 C.ar    1  UNL1        0.0233
     32 C         142.3477  142.5668  168.8087 C.3     1  UNL1        0.2352
     33 O         142.2251  142.8759  170.2714 O.3     1  UNL1       -0.4404
     34 C         141.0481  142.1167  170.8084 C.2     1  UNL1        0.3413
     35 O         140.5614  142.1329  172.2271 O.2     1  UNL1       -0.2449
@<TRIPOS>BOND
     1    25    26    1
     2    26    27   ar
     3    27    22    1
     4    22    23    1
     5    22    21    1
     6    21     1    1
     7     1     2    1
     8     2     3    1
     9     3     4    1
    10     4     5    1
    11     5     6    1
    12     4     7    1
    13     7     8    1
    14     8     9    1
    15     9    11    1
    16    11    12   ar
    17    12    13   ar
    18    13    14   ar
    19    14    17    1
    20    17    18    1
    21    17    19    2
    22    17    20    2
    23    14    15   ar
    24    15    16   ar
    25     9    10    1
    26    27    28   ar
    27    28    29   ar
    28    29    30   ar
    29    30    31   ar
    30    31    32    1
    31    32    33    1
    32    33    34    1
    33    34    35    2
    34    31    26   ar
    35     6     1    1
    36    16    11   ar
    37    34    30    1
    38    10     4    1
    39    23    24    1
@<TRIPOS>MOLECULE
*****
 35 39 0 0 0
SMALL
GASTEIGER

@<TRIPOS>ATOM
      1 N         144.9649  141.5539  163.2272 N.3     1  UNL1       -0.2704
      2 C         144.6643  141.8902  161.7967 C.3     1  UNL1        0.0722
      3 C         144.0755  140.8507  160.8897 C.3     1  UNL1        0.0191
      4 C         143.7873  139.4749  161.4133 C.3     1  UNL1        0.0226
      5 C         144.0880  139.1386  162.8438 C.3     1  UNL1        0.0191
      6 C         144.6768  140.1781  163.7508 C.3     1  UNL1        0.0722
      7 C         143.4471  138.0641  161.7929 C.3     1  UNL1        0.0232
      8 C         142.8848  137.3809  160.5816 C.3     1  UNL1        0.0922
      9 N         142.8776  138.3694  159.4534 N.pl3   1  UNL1       -0.2932
     10 C         143.4354  139.6635  159.9674 C.3     1  UNL1        0.0922
     11 C         142.3971  138.1094  158.0565 C.ar    1  UNL1        0.1318
     12 C         140.9294  138.1469  157.7491 C.ar    1  UNL1        0.0356
     13 C         140.4488  137.8869  156.3522 C.ar    1  UNL1        0.0228
     14 C         141.4359  137.5894  155.2626 C.ar    1  UNL1        0.1249
     15 C         142.9036  137.5519  155.5700 C.ar    1  UNL1        0.1186
     16 N         143.3841  137.8119  156.9670 N.ar    1  UNL1       -0.2278
     17 S         140.9553  137.3294  153.8657 S.O2    1  UNL1        0.0119
     18 C         140.4747  137.0694  152.4687 C.3     1  UNL1        0.1816
     19 O         139.6118  136.9323  154.4018 O.2     1  UNL1       -0.1685
     20 O         142.2987  137.7265  153.3296 O.2     1  UNL1       -0.1685
     21 C         145.5537  142.5935  164.1343 C.3     1  UNL1        0.1063
     22 C         144.6541  143.4684  164.9559 C.3     1  UNL1        0.1483
     23 O         145.1820  144.1385  166.1897 O.3     1  UNL1       -0.3786
     24 H         144.4766  144.6630  166.5998 H       1  UNL1        0.2108
     25 C         142.4747  141.8592  166.2446 C.3     1  UNL1        0.0306
     26 C         142.1368  142.8688  165.1880 C.ar    1  UNL1       -0.0238
     27 C         143.2264  143.6734  164.5436 C.ar    1  UNL1        0.0015
     28 C         142.8885  144.6830  163.4870 C.ar    1  UNL1       -0.0020
     29 C         141.4609  144.8880  163.0747 C.ar    1  UNL1        0.0060
     30 C         140.3713  144.0834  163.7191 C.ar    1  UNL1        0.0748
     31 C         140.7093  143.0738  164.7757 C.ar    1  UNL1        0.0233
     32 C         139.4315  142.4325  165.2297 C.3     1  UNL1        0.2352
     33 O         138.3038  143.0458  164.4536 O.3     1  UNL1       -0.4404
     34 C         138.8847  144.0661  163.5200 C.2     1  UNL1        0.3413
     35 O         138.1142  144.9193  162.5565 O.2     1  UNL1       -0.2449
@<TRIPOS>BOND
     1    25    26    1
     2    26    27   ar
     3    27    22    1
     4    22    23    1
     5    22    21    1
     6    21     1    1
     7     1     2    1
     8     2     3    1
     9     3     4    1
    10     4     5    1
    11     5     6    1
    12     4     7    1
    13     7     8    1
    14     8     9    1
    15     9    11    1
    16    11    12   ar
    17    12    13   ar
    18    13    14   ar
    19    14    17    1
    20    17    18    1
    21    17    19    2
    22    17    20    2
    23    14    15   ar
    24    15    16   ar
    25     9    10    1
    26    27    28   ar
    27    28    29   ar
    28    29    30   ar
    29    30    31   ar
    30    31    32    1
    31    32    33    1
    32    33    34    1
    33    34    35    2
    34    31    26   ar
    35     6     1    1
    36    16    11   ar
    37    34    30    1
    38    10     4    1
    39    23    24    1
@<TRIPOS>MOLECULE
*****
 35 39 0 0 0
SMALL
GASTEIGER

@<TRIPOS>ATOM
      1 N         140.4392  143.2577  161.2084 N.3     1  UNL1       -0.2704
      2 C         139.6680  142.2415  160.4194 C.3     1  UNL1        0.0722
      3 C         140.3890  141.1167  159.7377 C.3     1  UNL1        0.0191
      4 C         141.8812  141.0080  159.8449 C.3     1  UNL1        0.0226
      5 C         142.6525  142.0242  160.6339 C.3     1  UNL1        0.0191
      6 C         141.9315  143.1491  161.3156 C.3     1  UNL1        0.0722
      7 C         143.3623  140.7708  159.8628 C.3     1  UNL1        0.0232
      8 C         143.6442  139.5389  159.0544 C.3     1  UNL1        0.0922
      9 N         142.3373  139.0149  158.5370 N.pl3   1  UNL1       -0.2932
     10 C         141.2478  139.9229  159.0255 C.3     1  UNL1        0.0922
     11 C         142.1525  137.7970  157.6814 C.ar    1  UNL1        0.1318
     12 C         141.0161  137.7321  156.7045 C.ar    1  UNL1        0.0356
     13 C         140.8313  136.5140  155.8488 C.ar    1  UNL1        0.0228
     14 C         141.7828  135.3608  155.9700 C.ar    1  UNL1        0.1249
     15 C         142.9193  135.4257  156.9469 C.ar    1  UNL1        0.1186
     16 N         143.1041  136.6438  157.8026 N.ar    1  UNL1       -0.2278
     17 S         141.5980  134.1428  155.1143 S.O2    1  UNL1        0.0119
     18 C         141.4132  132.9247  154.2586 C.3     1  UNL1        0.1816
     19 O         142.0128  133.2725  156.2635 O.2     1  UNL1       -0.1685
     20 O         141.1832  135.0130  153.9652 O.2     1  UNL1       -0.1685
     21 C         139.7183  144.3827  161.8902 C.3     1  UNL1        0.1063
     22 C         138.6712  144.0861  162.9224 C.3     1  UNL1        0.1483
     23 O         137.3028  144.6876  162.7972 O.3     1  UNL1       -0.3786
     24 H         136.7524  144.3967  163.5410 H       1  UNL1        0.2108
     25 C         137.4350  141.3578  163.0924 C.3     1  UNL1        0.0306
     26 C         138.3744  141.8237  164.1650 C.ar    1  UNL1       -0.0238
     27 C         138.9925  143.1878  164.0801 C.ar    1  UNL1        0.0015
     28 C         139.9318  143.6537  165.1527 C.ar    1  UNL1       -0.0020
     29 C         140.2531  142.7556  166.3103 C.ar    1  UNL1        0.0060
     30 C         139.6350  141.3915  166.3952 C.ar    1  UNL1        0.0748
     31 C         138.6957  140.9256  165.3226 C.ar    1  UNL1        0.0233
     32 C         138.2424  139.5394  165.6735 C.3     1  UNL1        0.2352
     33 O         138.9017  139.1486  166.9629 O.3     1  UNL1       -0.4404
     34 C         139.7623  140.2933  167.4090 C.2     1  UNL1        0.3413
     35 O         140.6028  140.3328  168.6508 O.2     1  UNL1       -0.2449
@<TRIPOS>BOND
     1    25    26    1
     2    26    27   ar
     3    27    22    1
     4    22    23    1
     5    22    21    1
     6    21     1    1
     7     1     2    1
     8     2     3    1
     9     3     4    1
    10     4     5    1
    11     5     6    1
    12     4     7    1
    13     7     8    1
    14     8     9    1
    15     9    11    1
    16    11    12   ar
    17    12    13   ar
    18    13    14   ar
    19    14    17    1
    20    17    18    1
    21    17    19    2
    22    17    20    2
    23    14    15   ar
    24    15    16   ar
    25     9    10    1
    26    27    28   ar
    27    28    29   ar
    28    29    30   ar
    29    30    31   ar
    30    31    32    1
    31    32    33    1
    32    33    34    1
    33    34    35    2
    34    31    26   ar
    35     6     1    1
    36    16    11   ar
    37    34    30    1
    38    10     4    1
    39    23    24    1
@<TRIPOS>MOLECULE
*****
 35 39 0 0 0
SMALL
GASTEIGER

@<TRIPOS>ATOM
      1 N         141.8970  139.1833  165.1195 N.3     1  UNL1       -0.2704
      2 C         141.1422  138.2756  164.1942 C.3     1  UNL1        0.0722
      3 C         141.5883  138.1161  162.7710 C.3     1  UNL1        0.0191
      4 C         142.7892  138.8643  162.2731 C.3     1  UNL1        0.0226
      5 C         143.5440  139.7721  163.1984 C.3     1  UNL1        0.0191
      6 C         143.0979  139.9316  164.6216 C.3     1  UNL1        0.0722
      7 C         143.9649  139.5441  161.6362 C.3     1  UNL1        0.0232
      8 C         144.0403  139.0969  160.2063 C.3     1  UNL1        0.0922
      9 N         142.9111  138.1407  159.9596 N.pl3   1  UNL1       -0.2932
     10 C         142.1379  137.9970  161.2369 C.3     1  UNL1        0.0922
     11 C         142.6083  137.4497  158.6632 C.ar    1  UNL1        0.1318
     12 C         141.5635  138.0069  157.7425 C.ar    1  UNL1        0.0356
     13 C         141.2607  137.3158  156.4460 C.ar    1  UNL1        0.0228
     14 C         142.0027  136.0676  156.0703 C.ar    1  UNL1        0.1249
     15 C         143.0476  135.5103  156.9911 C.ar    1  UNL1        0.1186
     16 N         143.3504  136.2014  158.2875 N.ar    1  UNL1       -0.2278
     17 S         141.6999  135.3765  154.7739 S.O2    1  UNL1        0.0119
     18 C         141.3971  134.6854  153.4774 C.3     1  UNL1        0.1816
     19 O         141.3236  136.6925  154.1602 O.2     1  UNL1       -0.1685
     20 O         142.0762  134.0605  155.3874 O.2     1  UNL1       -0.1685
     21 C         141.4509  139.3429  166.5428 C.3     1  UNL1        0.1063
     22 C         140.4704  140.4186  166.9053 C.3     1  UNL1        0.1483
     23 O         139.8150  140.4123  168.2545 O.3     1  UNL1       -0.3786
     24 H         139.2141  141.1704  168.3257 H       1  UNL1        0.2108
     25 C         138.0998  140.1299  165.0895 C.3     1  UNL1        0.0306
     26 C         138.9600  141.3562  165.0107 C.ar    1  UNL1       -0.0238
     27 C         140.1452  141.5006  165.9186 C.ar    1  UNL1        0.0015
     28 C         141.0053  142.7270  165.8398 C.ar    1  UNL1       -0.0020
     29 C         140.6802  143.8090  164.8532 C.ar    1  UNL1        0.0060
     30 C         139.4949  143.6646  163.9453 C.ar    1  UNL1        0.0748
     31 C         138.6348  142.4382  164.0241 C.ar    1  UNL1        0.0233
     32 C         137.5397  142.5742  163.0081 C.3     1  UNL1        0.2352
     33 O         137.7229  143.8845  162.3014 O.3     1  UNL1       -0.4404
     34 C         138.9313  144.5584  162.8807 C.2     1  UNL1        0.3413
     35 O         139.4799  145.8921  162.4678 O.2     1  UNL1       -0.2449
@<TRIPOS>BOND
     1    25    26    1
     2    26    27   ar
     3    27    22    1
     4    22    23    1
     5    22    21    1
     6    21     1    1
     7     1     2    1
     8     2     3    1
     9     3     4    1
    10     4     5    1
    11     5     6    1
    12     4     7    1
    13     7     8    1
    14     8     9    1
    15     9    11    1
    16    11    12   ar
    17    12    13   ar
    18    13    14   ar
    19    14    17    1
    20    17    18    1
    21    17    19    2
    22    17    20    2
    23    14    15   ar
    24    15    16   ar
    25     9    10    1
    26    27    28   ar
    27    28    29   ar
    28    29    30   ar
    29    30    31   ar
    30    31    32    1
    31    32    33    1
    32    33    34    1
    33    34    35    2
    34    31    26   ar
    35     6     1    1
    36    16    11   ar
    37    34    30    1
    38    10     4    1
    39    23    24    1
@<TRIPOS>MOLECULE
*****
 35 39 0 0 0
SMALL
GASTEIGER

@<TRIPOS>ATOM
      1 N         141.7879  137.7946  157.1696 N.3     1  UNL1       -0.2704
      2 C         142.7266  137.8386  158.3388 C.3     1  UNL1        0.0722
      3 C         142.2094  138.1861  159.7031 C.3     1  UNL1        0.0191
      4 C         140.7535  138.4898  159.8984 C.3     1  UNL1        0.0226
      5 C         139.8148  138.4458  158.7293 C.3     1  UNL1        0.0191
      6 C         140.3320  138.0982  157.3649 C.3     1  UNL1        0.0722
      7 C         139.3310  138.8154  160.2455 C.3     1  UNL1        0.0232
      8 C         139.2662  139.0996  161.7170 C.3     1  UNL1        0.0922
      9 N         140.6488  138.9497  162.2793 N.pl3   1  UNL1       -0.2932
     10 C         141.5679  138.5728  161.1554 C.3     1  UNL1        0.0922
     11 C         141.0430  139.1428  163.7135 C.ar    1  UNL1        0.1318
     12 C         142.1255  138.2959  164.3144 C.ar    1  UNL1        0.0356
     13 C         142.5197  138.4890  165.7487 C.ar    1  UNL1        0.0228
     14 C         141.8314  139.5290  166.5822 C.ar    1  UNL1        0.1249
     15 C         140.7488  140.3759  165.9814 C.ar    1  UNL1        0.1186
     16 N         140.3547  140.1827  164.5471 N.ar    1  UNL1       -0.2278
     17 S         142.2256  139.7220  168.0166 S.O2    1  UNL1        0.0119
     18 C         142.6198  139.9151  169.4510 C.3     1  UNL1        0.1816
     19 O         143.3082  138.6961  167.8572 O.2     1  UNL1       -0.1685
     20 O         141.1430  140.7479  168.1760 O.2     1  UNL1       -0.1685
     21 C         142.3051  137.4470  155.8051 C.3     1  UNL1        0.1063
     22 C         143.4782  136.5234  155.6606 C.3     1  UNL1        0.1483
     23 O         144.8380  137.0797  155.3584 O.3     1  UNL1       -0.3786
     24 H         145.4783  136.3536  155.2979 H       1  UNL1        0.2108
     25 C         142.1683  134.9360  153.4778 C.3     1  UNL1        0.0306
     26 C         142.6364  134.2497  154.7267 C.ar    1  UNL1       -0.0238
     27 C         143.2914  135.0434  155.8181 C.ar    1  UNL1        0.0015
     28 C         143.7595  134.3571  157.0671 C.ar    1  UNL1       -0.0020
     29 C         143.5727  132.8772  157.2246 C.ar    1  UNL1        0.0060
     30 C         142.9178  132.0835  156.1333 C.ar    1  UNL1        0.0748
     31 C         142.4497  132.7698  154.8843 C.ar    1  UNL1        0.0233
     32 C         141.8428  131.7334  153.9856 C.3     1  UNL1        0.2352
     33 O         141.9359  130.4066  154.6791 O.3     1  UNL1       -0.4404
     34 C         142.6003  130.6230  156.0064 C.2     1  UNL1        0.3413
     35 O         142.8954  129.5647  157.0277 O.2     1  UNL1       -0.2449
@<TRIPOS>BOND
     1    25    26    1
     2    26    27   ar
     3    27    22    1
     4    22    23    1
     5    22    21    1
     6    21     1    1
     7     1     2    1
     8     2     3    1
     9     3     4    1
    10     4     5    1
    11     5     6    1
    12     4     7    1
    13     7     8    1
    14     8     9    1
    15     9    11    1
    16    11    12   ar
    17    12    13   ar
    18    13    14   ar
    19    14    17    1
    20    17    18    1
    21    17    19    2
    22    17    20    2
    23    14    15   ar
    24    15    16   ar
    25     9    10    1
    26    27    28   ar
    27    28    29   ar
    28    29    30   ar
    29    30    31   ar
    30    31    32    1
    31    32    33    1
    32    33    34    1
    33    34    35    2
    34    31    26   ar
    35     6     1    1
    36    16    11   ar
    37    34    30    1
    38    10     4    1
    39    23    24    1
