@<TRIPOS>MOLECULE
*****
 38 39 0 0 0
SMALL
GASTEIGER

@<TRIPOS>ATOM
      1 C         142.1662  138.0315  159.2993 C.2     1  UNL1        0.2483
      2 O         142.9149  137.3515  160.4070 O.2     1  UNL1       -0.2726
      3 N         140.8983  138.7755  159.5974 N.am    1  UNL1       -0.2823
      4 H         140.4069  139.2219  158.8704 H       1  UNL1        0.1549
      5 C         140.3792  138.8395  161.0033 C.ar    1  UNL1        0.0503
      6 C         139.2386  137.9600  161.4224 C.ar    1  UNL1        0.0144
      7 C         138.7195  138.0240  162.8282 C.ar    1  UNL1       -0.0002
      8 C         139.3408  138.9674  163.8150 C.ar    1  UNL1        0.0182
      9 C         140.4814  139.8470  163.3959 C.ar    1  UNL1       -0.0002
     10 C         141.0006  139.7830  161.9901 C.ar    1  UNL1        0.0144
     11 C         138.8217  139.0314  165.2208 C.3     1  UNL1        0.2827
     12 O         139.3493  137.6511  165.4785 O.3     1  UNL1       -0.3692
     13 H         139.1465  137.3926  166.3911 H       1  UNL1        0.2112
     14 C         138.3026  139.0954  166.6266 C.3     1  UNL1        0.4311
     15 F         137.7834  139.1594  168.0325 F       1  UNL1       -0.1669
     16 F         139.7052  139.2416  167.1379 F       1  UNL1       -0.1669
     17 F         137.4432  139.0144  166.4282 F       1  UNL1       -0.1669
     18 C         138.2942  140.4117  164.9632 C.3     1  UNL1        0.4311
     19 F         137.7666  141.7921  164.7056 F       1  UNL1       -0.1669
     20 F         137.6660  140.1808  164.3831 F       1  UNL1       -0.1669
     21 F         139.1437  141.2927  165.8306 F       1  UNL1       -0.1669
     22 C         142.6854  137.9675  157.8935 C.3     1  UNL1        0.1719
     23 C         141.7351  134.4124  155.3035 C.ar    1  UNL1        0.1056
     24 C         142.8892  134.3564  156.2600 C.ar    1  UNL1        0.0181
     25 C         143.2060  135.5415  157.1233 C.ar    1  UNL1       -0.0009
     26 C         142.3687  136.7825  157.0302 C.ar    1  UNL1        0.0044
     27 C         141.2145  136.8384  156.0737 C.ar    1  UNL1       -0.0009
     28 C         140.8978  135.6534  155.2104 C.ar    1  UNL1        0.0181
     29 S         141.4183  133.2274  154.4402 S.O2    1  UNL1        0.0087
     30 O         141.2584  134.1333  153.2554 O.2     1  UNL1       -0.1686
     31 O         141.5783  132.3215  155.6250 O.2     1  UNL1       -0.1686
     32 C         140.2581  130.9254  154.1164 C.3     1  UNL1        0.0276
     33 C         141.1016  132.0423  153.5769 C.3     1  UNL1        0.1560
     34 N         143.5214  139.0886  157.3510 N.am    1  UNL1       -0.2950
     35 C         142.8670  140.3574  156.8908 C.2     1  UNL1        0.2235
     36 C         143.7030  141.4785  156.3483 C.3     1  UNL1        0.0946
     37 O         141.3766  140.5052  156.9730 O.2     1  UNL1       -0.2751
     38 H         144.4996  138.9916  157.2971 H       1  UNL1        0.1501
@<TRIPOS>BOND
     1    32    33    1
     2    33    29    1
     3    29    30    2
     4    29    31    2
     5    29    23    1
     6    23    24   ar
     7    24    25   ar
     8    25    26   ar
     9    26    22    1
    10    22    34    1
    11    34    35   am
    12    35    36    1
    13    35    37    2
    14    22     1    1
    15     1     2    2
    16     1     3   am
    17     3     5    1
    18     5     6   ar
    19     6     7   ar
    20     7     8   ar
    21     8    11    1
    22    11    12    1
    23    11    14    1
    24    14    15    1
    25    14    16    1
    26    14    17    1
    27    11    18    1
    28    18    19    1
    29    18    20    1
    30    18    21    1
    31     8     9   ar
    32     9    10   ar
    33    26    27   ar
    34    27    28   ar
    35    28    23   ar
    36    10     5   ar
    37    34    38    1
    38     3     4    1
    39    12    13    1
@<TRIPOS>MOLECULE
*****
 38 39 0 0 0
SMALL
GASTEIGER

@<TRIPOS>ATOM
      1 C         140.6424  139.0826  158.9275 C.2     1  UNL1        0.2483
      2 O         141.4272  140.1197  159.6748 O.2     1  UNL1       -0.2726
      3 N         139.6321  138.2417  159.6502 N.am    1  UNL1       -0.2823
      4 H         139.1170  137.5610  159.1597 H       1  UNL1        0.1549
      5 C         139.4067  138.4380  161.1201 C.ar    1  UNL1        0.0503
      6 C         138.2733  139.2972  161.5969 C.ar    1  UNL1        0.0144
      7 C         138.0479  139.4935  163.0669 C.ar    1  UNL1       -0.0002
      8 C         138.9558  138.8306  164.0600 C.ar    1  UNL1        0.0182
      9 C         140.0892  137.9714  163.5831 C.ar    1  UNL1       -0.0002
     10 C         140.3146  137.7751  162.1132 C.ar    1  UNL1        0.0144
     11 C         138.7304  139.0268  165.5299 C.3     1  UNL1        0.2827
     12 O         138.6050  137.5429  165.7088 O.3     1  UNL1       -0.3692
     13 H         138.4406  137.3426  166.6436 H       1  UNL1        0.2112
     14 C         138.5050  139.2231  166.9998 C.3     1  UNL1        0.4311
     15 F         138.2797  139.4194  168.4698 F       1  UNL1       -0.1669
     16 F         137.1467  138.5992  166.8748 F       1  UNL1       -0.1669
     17 F         139.2850  139.6029  167.1788 F       1  UNL1       -0.1669
     18 C         138.8558  140.5108  165.3510 C.3     1  UNL1        0.4311
     19 F         138.9813  141.9948  165.1720 F       1  UNL1       -0.1669
     20 F         138.0010  140.7071  165.4742 F       1  UNL1       -0.1669
     21 F         140.3165  140.7219  165.0824 F       1  UNL1       -0.1669
     22 C         140.8679  138.8863  157.4576 C.3     1  UNL1        0.1719
     23 C         142.1970  134.8790  155.9004 C.ar    1  UNL1        0.1056
     24 C         140.9438  135.5111  155.3715 C.ar    1  UNL1        0.0181
     25 C         140.5008  136.8469  155.8905 C.ar    1  UNL1       -0.0009
     26 C         141.3109  137.5505  156.9386 C.ar    1  UNL1        0.0044
     27 C         142.5641  136.9185  157.4675 C.ar    1  UNL1       -0.0009
     28 C         143.0072  135.5827  156.9485 C.ar    1  UNL1        0.0181
     29 S         142.6401  133.5432  155.3814 S.O2    1  UNL1        0.0087
     30 O         142.7312  134.1117  153.9963 O.2     1  UNL1       -0.1686
     31 O         142.5490  132.9748  156.7665 O.2     1  UNL1       -0.1686
     32 C         144.2104  131.4789  155.5320 C.3     1  UNL1        0.0276
     33 C         143.0832  132.2075  154.8623 C.3     1  UNL1        0.1560
     34 N         140.6503  140.0258  156.5068 N.am    1  UNL1       -0.2950
     35 C         139.2638  140.3611  156.0427 C.2     1  UNL1        0.2235
     36 C         139.0463  141.5007  155.0918 C.3     1  UNL1        0.0946
     37 O         138.0950  139.5568  156.5294 O.2     1  UNL1       -0.2751
     38 H         141.4174  140.5537  156.1873 H       1  UNL1        0.1501
@<TRIPOS>BOND
     1    32    33    1
     2    33    29    1
     3    29    30    2
     4    29    31    2
     5    29    23    1
     6    23    24   ar
     7    24    25   ar
     8    25    26   ar
     9    26    22    1
    10    22    34    1
    11    34    35   am
    12    35    36    1
    13    35    37    2
    14    22     1    1
    15     1     2    2
    16     1     3   am
    17     3     5    1
    18     5     6   ar
    19     6     7   ar
    20     7     8   ar
    21     8    11    1
    22    11    12    1
    23    11    14    1
    24    14    15    1
    25    14    16    1
    26    14    17    1
    27    11    18    1
    28    18    19    1
    29    18    20    1
    30    18    21    1
    31     8     9   ar
    32     9    10   ar
    33    26    27   ar
    34    27    28   ar
    35    28    23   ar
    36    10     5   ar
    37    34    38    1
    38     3     4    1
    39    12    13    1
@<TRIPOS>MOLECULE
*****
 38 39 0 0 0
SMALL
GASTEIGER

@<TRIPOS>ATOM
      1 C         141.7877  138.2124  158.8575 C.2     1  UNL1        0.2483
      2 O         142.6244  137.5406  159.9058 O.2     1  UNL1       -0.2726
      3 N         140.5251  138.9223  159.2470 N.am    1  UNL1       -0.2823
      4 H         139.9759  139.3633  158.5591 H       1  UNL1        0.1549
      5 C         140.0990  138.9604  160.6848 C.ar    1  UNL1        0.0503
      6 C         139.0258  138.0336  161.1738 C.ar    1  UNL1        0.0144
      7 C         138.5997  138.0717  162.6116 C.ar    1  UNL1       -0.0002
      8 C         139.2470  139.0365  163.5603 C.ar    1  UNL1        0.0182
      9 C         140.3204  139.9633  163.0712 C.ar    1  UNL1       -0.0002
     10 C         140.7463  139.9252  161.6335 C.ar    1  UNL1        0.0144
     11 C         138.8210  139.0746  164.9980 C.3     1  UNL1        0.2827
     12 O         139.3923  137.7030  165.2036 O.3     1  UNL1       -0.3692
     13 H         139.2558  137.4306  166.1245 H       1  UNL1        0.2112
     14 C         138.3951  139.1127  166.4357 C.3     1  UNL1        0.4311
     15 F         137.9690  139.1508  167.8735 F       1  UNL1       -0.1669
     16 F         139.8318  139.1927  166.8593 F       1  UNL1       -0.1669
     17 F         137.5223  139.0686  166.2909 F       1  UNL1       -0.1669
     18 C         138.2498  140.4462  164.7924 C.3     1  UNL1        0.4311
     19 F         137.6785  141.8179  164.5868 F       1  UNL1       -0.1669
     20 F         137.5956  140.2097  164.2441 F       1  UNL1       -0.1669
     21 F         139.1265  141.3333  165.6259 F       1  UNL1       -0.1669
     22 C         142.2138  138.1744  157.4198 C.3     1  UNL1        0.1719
     23 C         145.5808  140.8009  156.0005 C.ar    1  UNL1        0.1056
     24 C         144.8587  141.1295  157.2735 C.ar    1  UNL1        0.0181
     25 C         143.7363  140.2540  157.7466 C.ar    1  UNL1       -0.0009
     26 C         143.3361  139.0499  156.9467 C.ar    1  UNL1        0.0044
     27 C         144.0583  138.7212  155.6738 C.ar    1  UNL1       -0.0009
     28 C         145.1807  139.5967  155.2007 C.ar    1  UNL1        0.0181
     29 S         146.7032  141.6764  155.5274 S.O2    1  UNL1        0.0087
     30 O         146.5884  141.0819  154.1551 O.2     1  UNL1       -0.1686
     31 O         146.8180  142.2708  156.8998 O.2     1  UNL1       -0.1686
     32 C         149.2018  141.9803  154.8836 C.3     1  UNL1        0.0276
     33 C         147.8256  142.5519  155.0543 C.3     1  UNL1        0.1560
     34 N         141.5175  137.2608  156.4552 N.am    1  UNL1       -0.2950
     35 C         141.9701  135.8381  156.3096 C.2     1  UNL1        0.2235
     36 C         141.2737  134.9245  155.3450 C.3     1  UNL1        0.0946
     37 O         143.1191  135.3291  157.1286 O.2     1  UNL1       -0.2751
     38 H         140.7634  137.5949  155.9177 H       1  UNL1        0.1501
@<TRIPOS>BOND
     1    32    33    1
     2    33    29    1
     3    29    30    2
     4    29    31    2
     5    29    23    1
     6    23    24   ar
     7    24    25   ar
     8    25    26   ar
     9    26    22    1
    10    22    34    1
    11    34    35   am
    12    35    36    1
    13    35    37    2
    14    22     1    1
    15     1     2    2
    16     1     3   am
    17     3     5    1
    18     5     6   ar
    19     6     7   ar
    20     7     8   ar
    21     8    11    1
    22    11    12    1
    23    11    14    1
    24    14    15    1
    25    14    16    1
    26    14    17    1
    27    11    18    1
    28    18    19    1
    29    18    20    1
    30    18    21    1
    31     8     9   ar
    32     9    10   ar
    33    26    27   ar
    34    27    28   ar
    35    28    23   ar
    36    10     5   ar
    37    34    38    1
    38     3     4    1
    39    12    13    1
@<TRIPOS>MOLECULE
*****
 38 39 0 0 0
SMALL
GASTEIGER

@<TRIPOS>ATOM
      1 C         142.4833  138.1544  157.9915 C.2     1  UNL1        0.2483
      2 O         141.2293  138.0265  158.8047 O.2     1  UNL1       -0.2726
      3 N         143.6800  138.8547  158.5636 N.am    1  UNL1       -0.2823
      4 H         144.5030  138.9387  158.0300 H       1  UNL1        0.1549
      5 C         143.6227  139.4272  159.9490 C.ar    1  UNL1        0.0503
      6 C         144.0796  138.6071  161.1189 C.ar    1  UNL1        0.0144
      7 C         144.0223  139.1795  162.5042 C.ar    1  UNL1       -0.0002
      8 C         143.5082  140.5721  162.7196 C.ar    1  UNL1        0.0182
      9 C         143.0513  141.3922  161.5496 C.ar    1  UNL1       -0.0002
     10 C         143.1085  140.8197  160.1644 C.ar    1  UNL1        0.0144
     11 C         143.4509  141.1445  164.1048 C.3     1  UNL1        0.2827
     12 O         141.9671  140.9264  164.1336 O.3     1  UNL1       -0.3692
     13 H         141.6124  141.2284  164.9844 H       1  UNL1        0.2112
     14 C         143.3936  141.7170  165.4901 C.3     1  UNL1        0.4311
     15 F         143.3363  142.2895  166.8754 F       1  UNL1       -0.1669
     16 F         143.1339  140.3479  166.0451 F       1  UNL1       -0.1669
     17 F         143.5417  142.5606  165.2645 F       1  UNL1       -0.1669
     18 C         144.9346  141.3626  164.0761 C.3     1  UNL1        0.4311
     19 F         146.4184  141.5808  164.0473 F       1  UNL1       -0.1669
     20 F         145.1561  140.6642  164.5737 F       1  UNL1       -0.1669
     21 F         145.1038  142.5978  163.2418 F       1  UNL1       -0.1669
     22 C         142.5405  137.5820  156.6062 C.3     1  UNL1        0.1719
     23 C         142.2251  133.1349  155.9945 C.ar    1  UNL1        0.1056
     24 C         141.3850  134.0666  155.1721 C.ar    1  UNL1        0.0181
     25 C         141.4901  135.5489  155.3761 C.ar    1  UNL1       -0.0009
     26 C         142.4354  136.0996  156.4023 C.ar    1  UNL1        0.0044
     27 C         143.2754  135.1680  157.2246 C.ar    1  UNL1       -0.0009
     28 C         143.1703  133.6857  157.0207 C.ar    1  UNL1        0.0181
     29 S         142.1199  131.6526  155.7905 S.O2    1  UNL1        0.0087
     30 O         143.1989  131.4358  156.8098 O.2     1  UNL1       -0.1686
     31 O         141.0409  131.8693  154.7713 O.2     1  UNL1       -0.1686
     32 C         142.9187  129.2430  156.3437 C.3     1  UNL1        0.0276
     33 C         142.0148  130.1702  155.5866 C.3     1  UNL1        0.1560
     34 N         142.7029  138.4919  155.4249 N.am    1  UNL1       -0.2950
     35 C         144.0747  138.8963  154.9726 C.2     1  UNL1        0.2235
     36 C         144.2370  139.8062  153.7911 C.3     1  UNL1        0.0946
     37 O         145.2842  138.3907  155.7016 O.2     1  UNL1       -0.2751
     38 H         141.9090  138.8238  154.9464 H       1  UNL1        0.1501
@<TRIPOS>BOND
     1    32    33    1
     2    33    29    1
     3    29    30    2
     4    29    31    2
     5    29    23    1
     6    23    24   ar
     7    24    25   ar
     8    25    26   ar
     9    26    22    1
    10    22    34    1
    11    34    35   am
    12    35    36    1
    13    35    37    2
    14    22     1    1
    15     1     2    2
    16     1     3   am
    17     3     5    1
    18     5     6   ar
    19     6     7   ar
    20     7     8   ar
    21     8    11    1
    22    11    12    1
    23    11    14    1
    24    14    15    1
    25    14    16    1
    26    14    17    1
    27    11    18    1
    28    18    19    1
    29    18    20    1
    30    18    21    1
    31     8     9   ar
    32     9    10   ar
    33    26    27   ar
    34    27    28   ar
    35    28    23   ar
    36    10     5   ar
    37    34    38    1
    38     3     4    1
    39    12    13    1
@<TRIPOS>MOLECULE
*****
 38 39 0 0 0
SMALL
GASTEIGER

@<TRIPOS>ATOM
      1 C         140.3096  145.9435  157.4031 C.2     1  UNL1        0.2483
      2 O         141.7760  146.2577  157.3715 O.2     1  UNL1       -0.2726
      3 N         139.6982  145.3398  158.6326 N.am    1  UNL1       -0.2823
      4 H         138.7358  145.1335  158.6534 H       1  UNL1        0.1549
      5 C         140.5533  145.0503  159.8306 C.ar    1  UNL1        0.0503
      6 C         141.6806  144.0663  159.7273 C.ar    1  UNL1        0.0144
      7 C         142.5357  143.7768  160.9253 C.ar    1  UNL1       -0.0002
      8 C         142.2634  144.4715  162.2266 C.ar    1  UNL1        0.0182
      9 C         141.1360  145.4557  162.3298 C.ar    1  UNL1       -0.0002
     10 C         140.2810  145.7450  161.1319 C.ar    1  UNL1        0.0144
     11 C         143.1184  144.1821  163.4246 C.3     1  UNL1        0.2827
     12 O         144.3110  144.7441  162.7091 O.3     1  UNL1       -0.3692
     13 H         145.0894  144.6888  163.2853 H       1  UNL1        0.2112
     14 C         143.9734  143.8928  164.6225 C.3     1  UNL1        0.4311
     15 F         144.8285  143.6033  165.8205 F       1  UNL1       -0.1669
     16 F         144.2261  145.3610  164.7968 F       1  UNL1       -0.1669
     17 F         143.8869  143.0114  164.6066 F       1  UNL1       -0.1669
     18 C         141.9258  143.6202  164.1400 C.3     1  UNL1        0.4311
     19 F         140.7332  143.0582  164.8555 F       1  UNL1       -0.1669
     20 F         141.8221  144.2852  164.7158 F       1  UNL1       -0.1669
     21 F         141.6668  142.3163  163.4451 F       1  UNL1       -0.1669
     22 C         139.4546  146.2329  156.2051 C.3     1  UNL1        0.1719
     23 C         139.2234  150.4164  154.5635 C.ar    1  UNL1        0.1056
     24 C         138.5361  150.0777  155.8530 C.ar    1  UNL1        0.0181
     25 C         138.6132  148.6832  156.4002 C.ar    1  UNL1       -0.0009
     26 C         139.3775  147.6274  155.6579 C.ar    1  UNL1        0.0044
     27 C         140.0648  147.9661  154.3684 C.ar    1  UNL1       -0.0009
     28 C         139.9878  149.3606  153.8212 C.ar    1  UNL1        0.0181
     29 S         139.1464  151.8109  154.0163 S.O2    1  UNL1        0.0087
     30 O         139.0160  151.2588  152.6277 O.2     1  UNL1       -0.1686
     31 O         139.2768  152.3630  155.4049 O.2     1  UNL1       -0.1686
     32 C         138.0203  154.1518  153.9728 C.3     1  UNL1        0.0276
     33 C         139.0694  153.2054  153.4691 C.3     1  UNL1        0.1560
     34 N         138.6766  145.1278  155.5543 N.am    1  UNL1       -0.2950
     35 C         139.3364  144.2440  154.5377 C.2     1  UNL1        0.2235
     36 C         138.5583  143.1389  153.8869 C.3     1  UNL1        0.0946
     37 O         140.7741  144.4653  154.1718 O.2     1  UNL1       -0.2751
     38 H         137.7329  144.9826  155.7945 H       1  UNL1        0.1501
@<TRIPOS>BOND
     1    32    33    1
     2    33    29    1
     3    29    30    2
     4    29    31    2
     5    29    23    1
     6    23    24   ar
     7    24    25   ar
     8    25    26   ar
     9    26    22    1
    10    22    34    1
    11    34    35   am
    12    35    36    1
    13    35    37    2
    14    22     1    1
    15     1     2    2
    16     1     3   am
    17     3     5    1
    18     5     6   ar
    19     6     7   ar
    20     7     8   ar
    21     8    11    1
    22    11    12    1
    23    11    14    1
    24    14    15    1
    25    14    16    1
    26    14    17    1
    27    11    18    1
    28    18    19    1
    29    18    20    1
    30    18    21    1
    31     8     9   ar
    32     9    10   ar
    33    26    27   ar
    34    27    28   ar
    35    28    23   ar
    36    10     5   ar
    37    34    38    1
    38     3     4    1
    39    12    13    1
@<TRIPOS>MOLECULE
*****
 38 39 0 0 0
SMALL
GASTEIGER

@<TRIPOS>ATOM
      1 C         141.4155  138.4903  158.7036 C.2     1  UNL1        0.2483
      2 O         142.3314  137.8715  159.7177 O.2     1  UNL1       -0.2726
      3 N         140.1255  139.1176  159.1421 N.am    1  UNL1       -0.2823
      4 H         139.5244  139.5237  158.4765 H       1  UNL1        0.1549
      5 C         139.7514  139.1262  160.5947 C.ar    1  UNL1        0.0503
      6 C         138.8727  138.0445  161.1493 C.ar    1  UNL1        0.0144
      7 C         138.4985  138.0531  162.6019 C.ar    1  UNL1       -0.0002
      8 C         139.0032  139.1435  163.4999 C.ar    1  UNL1        0.0182
      9 C         139.8820  140.2253  162.9452 C.ar    1  UNL1       -0.0002
     10 C         140.2561  140.2166  161.4927 C.ar    1  UNL1        0.0144
     11 C         138.6291  139.1521  164.9524 C.3     1  UNL1        0.2827
     12 O         137.8391  140.4096  164.7415 O.3     1  UNL1       -0.3692
     13 H         137.4407  140.6859  165.5816 H       1  UNL1        0.2112
     14 C         138.2551  139.1608  166.4050 C.3     1  UNL1        0.4311
     15 F         137.8809  139.1694  167.8576 F       1  UNL1       -0.1669
     16 F         139.5445  139.8534  166.7329 F       1  UNL1       -0.1669
     17 F         137.4724  138.7554  166.3173 F       1  UNL1       -0.1669
     18 C         139.4192  137.8947  165.1634 C.3     1  UNL1        0.4311
     19 F         140.2093  136.6371  165.3743 F       1  UNL1       -0.1669
     20 F         140.2214  138.2490  165.0391 F       1  UNL1       -0.1669
     21 F         138.3764  136.8538  165.4453 F       1  UNL1       -0.1669
     22 C         141.7897  138.4816  157.2510 C.3     1  UNL1        0.1719
     23 C         142.3215  134.5717  155.0877 C.ar    1  UNL1        0.1056
     24 C         143.4398  135.1272  155.9188 C.ar    1  UNL1        0.0181
     25 C         143.2625  136.4305  156.6399 C.ar    1  UNL1       -0.0009
     26 C         141.9670  137.1783  156.5299 C.ar    1  UNL1        0.0044
     27 C         140.8486  136.6229  155.6988 C.ar    1  UNL1       -0.0009
     28 C         141.0259  135.3196  154.9777 C.ar    1  UNL1        0.0181
     29 S         142.4988  133.2685  154.3666 S.O2    1  UNL1        0.0087
     30 O         141.3277  133.5953  153.4880 O.2     1  UNL1       -0.1686
     31 O         143.6698  132.9416  155.2452 O.2     1  UNL1       -0.1686
     32 C         143.6361  130.9406  154.1732 C.3     1  UNL1        0.0276
     33 C         142.6760  131.9652  153.6455 C.3     1  UNL1        0.1560
     34 N         141.9866  139.7763  156.5196 N.am    1  UNL1       -0.2950
     35 C         143.3286  140.4463  156.5288 C.2     1  UNL1        0.2235
     36 C         143.5254  141.7411  155.7973 C.3     1  UNL1        0.0946
     37 O         144.4737  139.8217  157.2693 O.2     1  UNL1       -0.2751
     38 H         141.2350  140.1863  156.0336 H       1  UNL1        0.1501
@<TRIPOS>BOND
     1    32    33    1
     2    33    29    1
     3    29    30    2
     4    29    31    2
     5    29    23    1
     6    23    24   ar
     7    24    25   ar
     8    25    26   ar
     9    26    22    1
    10    22    34    1
    11    34    35   am
    12    35    36    1
    13    35    37    2
    14    22     1    1
    15     1     2    2
    16     1     3   am
    17     3     5    1
    18     5     6   ar
    19     6     7   ar
    20     7     8   ar
    21     8    11    1
    22    11    12    1
    23    11    14    1
    24    14    15    1
    25    14    16    1
    26    14    17    1
    27    11    18    1
    28    18    19    1
    29    18    20    1
    30    18    21    1
    31     8     9   ar
    32     9    10   ar
    33    26    27   ar
    34    27    28   ar
    35    28    23   ar
    36    10     5   ar
    37    34    38    1
    38     3     4    1
    39    12    13    1
@<TRIPOS>MOLECULE
*****
 38 39 0 0 0
SMALL
GASTEIGER

@<TRIPOS>ATOM
      1 C         142.6913  138.6488  157.8710 C.2     1  UNL1        0.2483
      2 O         141.4593  138.4943  158.7128 O.2     1  UNL1       -0.2726
      3 N         143.8993  139.3407  158.4294 N.am    1  UNL1       -0.2823
      4 H         144.7078  139.4421  157.8770 H       1  UNL1        0.1549
      5 C         143.8754  139.8782  159.8297 C.ar    1  UNL1        0.0503
      6 C         144.0448  138.9471  160.9934 C.ar    1  UNL1        0.0144
      7 C         144.0210  139.4845  162.3937 C.ar    1  UNL1       -0.0002
      8 C         143.8277  140.9531  162.6301 C.ar    1  UNL1        0.0182
      9 C         143.6583  141.8842  161.4663 C.ar    1  UNL1       -0.0002
     10 C         143.6822  141.3467  160.0661 C.ar    1  UNL1        0.0144
     11 C         143.8039  141.4906  164.0303 C.3     1  UNL1        0.2827
     12 O         145.2331  141.0745  164.2144 O.3     1  UNL1       -0.3692
     13 H         145.5267  141.3125  165.1077 H       1  UNL1        0.2112
     14 C         143.7800  142.0281  165.4304 C.3     1  UNL1        0.4311
     15 F         143.7561  142.5656  166.8307 F       1  UNL1       -0.1669
     16 F         144.8291  143.0347  165.0619 F       1  UNL1       -0.1669
     17 F         143.1633  141.4767  165.7472 F       1  UNL1       -0.1669
     18 C         142.3746  141.9067  163.8462 C.3     1  UNL1        0.4311
     19 F         140.9452  142.3229  163.6620 F       1  UNL1       -0.1669
     20 F         142.0307  141.0922  163.7944 F       1  UNL1       -0.1669
     21 F         142.4276  143.4057  163.8653 F       1  UNL1       -0.1669
     22 C         142.7151  138.1113  156.4708 C.3     1  UNL1        0.1719
     23 C         142.0078  133.7293  155.7304 C.ar    1  UNL1        0.1056
     24 C         142.9858  134.1641  156.7813 C.ar    1  UNL1        0.0181
     25 C         143.2216  135.6248  157.0281 C.ar    1  UNL1       -0.0009
     26 C         142.4793  136.6507  156.2240 C.ar    1  UNL1        0.0044
     27 C         141.5013  136.2159  155.1731 C.ar    1  UNL1       -0.0009
     28 C         141.2656  134.7552  154.9263 C.ar    1  UNL1        0.0181
     29 S         141.7721  132.2687  155.4836 S.O2    1  UNL1        0.0087
     30 O         141.1338  132.5944  154.1658 O.2     1  UNL1       -0.1686
     31 O         142.4104  131.9430  156.8014 O.2     1  UNL1       -0.1686
     32 C         140.1934  130.3342  154.7656 C.3     1  UNL1        0.0276
     33 C         141.5363  130.8080  155.2368 C.3     1  UNL1        0.1560
     34 N         142.9746  139.0345  155.3175 N.am    1  UNL1       -0.2950
     35 C         144.3838  139.3586  154.9186 C.2     1  UNL1        0.2235
     36 C         144.6434  140.2818  153.7652 C.3     1  UNL1        0.0946
     37 O         145.5335  138.7595  155.6731 O.2     1  UNL1       -0.2751
     38 H         142.2201  139.4277  154.8223 H       1  UNL1        0.1501
@<TRIPOS>BOND
     1    32    33    1
     2    33    29    1
     3    29    30    2
     4    29    31    2
     5    29    23    1
     6    23    24   ar
     7    24    25   ar
     8    25    26   ar
     9    26    22    1
    10    22    34    1
    11    34    35   am
    12    35    36    1
    13    35    37    2
    14    22     1    1
    15     1     2    2
    16     1     3   am
    17     3     5    1
    18     5     6   ar
    19     6     7   ar
    20     7     8   ar
    21     8    11    1
    22    11    12    1
    23    11    14    1
    24    14    15    1
    25    14    16    1
    26    14    17    1
    27    11    18    1
    28    18    19    1
    29    18    20    1
    30    18    21    1
    31     8     9   ar
    32     9    10   ar
    33    26    27   ar
    34    27    28   ar
    35    28    23   ar
    36    10     5   ar
    37    34    38    1
    38     3     4    1
    39    12    13    1
@<TRIPOS>MOLECULE
*****
 38 39 0 0 0
SMALL
GASTEIGER

@<TRIPOS>ATOM
      1 C         142.6798  137.8046  157.4834 C.2     1  UNL1        0.2483
      2 O         143.8783  138.6599  157.1966 O.2     1  UNL1       -0.2726
      3 N         142.0289  137.8543  158.8339 N.am    1  UNL1       -0.2823
      4 H         141.2423  137.2930  159.0222 H       1  UNL1        0.1549
      5 C         142.5766  138.7592  159.8976 C.ar    1  UNL1        0.0503
      6 C         142.0823  140.1711  160.0087 C.ar    1  UNL1        0.0144
      7 C         142.6300  141.0760  161.0724 C.ar    1  UNL1       -0.0002
      8 C         143.6719  140.5690  162.0249 C.ar    1  UNL1        0.0182
      9 C         144.1662  139.1570  161.9137 C.ar    1  UNL1       -0.0002
     10 C         143.6186  138.2522  160.8501 C.ar    1  UNL1        0.0144
     11 C         144.2196  141.4738  163.0885 C.3     1  UNL1        0.2827
     12 O         144.7734  142.3819  162.0308 O.3     1  UNL1       -0.3692
     13 H         145.2266  143.1293  162.4513 H       1  UNL1        0.2112
     14 C         144.7673  142.3786  164.1521 C.3     1  UNL1        0.4311
     15 F         145.3149  143.2835  165.2158 F       1  UNL1       -0.1669
     16 F         146.1589  141.9308  163.8165 F       1  UNL1       -0.1669
     17 F         143.9910  142.7062  164.4254 F       1  UNL1       -0.1669
     18 C         143.6658  140.5657  164.1461 C.3     1  UNL1        0.4311
     19 F         143.1121  139.6575  165.2039 F       1  UNL1       -0.1669
     20 F         142.8145  140.7877  164.0442 F       1  UNL1       -0.1669
     21 F         144.8754  139.8701  164.6970 F       1  UNL1       -0.1669
     22 C         142.1322  136.8998  156.4198 C.3     1  UNL1        0.1719
     23 C         143.4347  132.5963  156.2372 C.ar    1  UNL1        0.1056
     24 C         142.6208  133.1816  155.1214 C.ar    1  UNL1        0.0181
     25 C         142.1867  134.6161  155.1823 C.ar    1  UNL1       -0.0009
     26 C         142.5664  135.4653  156.3589 C.ar    1  UNL1        0.0044
     27 C         143.3802  134.8800  157.4747 C.ar    1  UNL1       -0.0009
     28 C         143.8144  133.4455  157.4139 C.ar    1  UNL1        0.0181
     29 S         143.8688  131.1618  156.1763 S.O2    1  UNL1        0.0087
     30 O         145.2988  131.5995  156.0600 O.2     1  UNL1       -0.1686
     31 O         142.4388  130.7240  156.2927 O.2     1  UNL1       -0.1686
     32 C         145.0411  129.2174  154.9133 C.3     1  UNL1        0.0276
     33 C         144.3030  129.7273  156.1155 C.3     1  UNL1        0.1560
     34 N         141.1505  137.4295  155.4170 N.am    1  UNL1       -0.2950
     35 C         139.7392  137.7232  155.8319 C.2     1  UNL1        0.2235
     36 C         138.7575  138.2529  154.8291 C.3     1  UNL1        0.0946
     37 O         139.3097  137.4872  157.2496 O.2     1  UNL1       -0.2751
     38 H         141.4323  137.5843  154.4866 H       1  UNL1        0.1501
@<TRIPOS>BOND
     1    32    33    1
     2    33    29    1
     3    29    30    2
     4    29    31    2
     5    29    23    1
     6    23    24   ar
     7    24    25   ar
     8    25    26   ar
     9    26    22    1
    10    22    34    1
    11    34    35   am
    12    35    36    1
    13    35    37    2
    14    22     1    1
    15     1     2    2
    16     1     3   am
    17     3     5    1
    18     5     6   ar
    19     6     7   ar
    20     7     8   ar
    21     8    11    1
    22    11    12    1
    23    11    14    1
    24    14    15    1
    25    14    16    1
    26    14    17    1
    27    11    18    1
    28    18    19    1
    29    18    20    1
    30    18    21    1
    31     8     9   ar
    32     9    10   ar
    33    26    27   ar
    34    27    28   ar
    35    28    23   ar
    36    10     5   ar
    37    34    38    1
    38     3     4    1
    39    12    13    1
@<TRIPOS>MOLECULE
*****
 38 39 0 0 0
SMALL
GASTEIGER

@<TRIPOS>ATOM
      1 C         142.5703  137.9339  157.3243 C.2     1  UNL1        0.2483
      2 O         143.7863  138.7682  157.0495 O.2     1  UNL1       -0.2726
      3 N         141.9335  137.9608  158.6822 N.am    1  UNL1       -0.2823
      4 H         141.1355  137.4132  158.8626 H       1  UNL1        0.1549
      5 C         142.5127  138.8220  159.7653 C.ar    1  UNL1        0.0503
      6 C         143.6125  138.2923  160.6370 C.ar    1  UNL1        0.0144
      7 C         144.1917  139.1535  161.7201 C.ar    1  UNL1       -0.0002
      8 C         143.6711  140.5443  161.9313 C.ar    1  UNL1        0.0182
      9 C         142.5712  141.0739  161.0595 C.ar    1  UNL1       -0.0002
     10 C         141.9921  140.2128  159.9765 C.ar    1  UNL1        0.0144
     11 C         144.2502  141.4055  163.0143 C.3     1  UNL1        0.2827
     12 O         144.6024  142.4491  161.9961 O.3     1  UNL1       -0.3692
     13 H         145.0314  143.1992  162.4369 H       1  UNL1        0.2112
     14 C         144.8293  142.2667  164.0973 C.3     1  UNL1        0.4311
     15 F         145.4085  143.1280  165.1803 F       1  UNL1       -0.1669
     16 F         146.2107  141.9746  163.5909 F       1  UNL1       -0.1669
     17 F         144.0614  142.4999  164.4721 F       1  UNL1       -0.1669
     18 C         143.8980  140.3619  164.0325 C.3     1  UNL1        0.4311
     19 F         143.5457  139.3183  165.0508 F       1  UNL1       -0.1669
     20 F         144.7250  140.0960  164.2051 F       1  UNL1       -0.1669
     21 F         142.4015  140.4252  164.1144 F       1  UNL1       -0.1669
     22 C         141.9912  137.0727  156.2413 C.3     1  UNL1        0.1719
     23 C         143.2022  132.7512  155.9136 C.ar    1  UNL1        0.1056
     24 C         144.1036  133.7325  156.6023 C.ar    1  UNL1        0.0181
     25 C         143.7000  135.1730  156.7115 C.ar    1  UNL1       -0.0009
     26 C         142.3949  135.6322  156.1321 C.ar    1  UNL1        0.0044
     27 C         141.4934  134.6509  155.4434 C.ar    1  UNL1       -0.0009
     28 C         141.8971  133.2103  155.3342 C.ar    1  UNL1        0.0181
     29 S         143.6059  131.3106  155.8044 S.O2    1  UNL1        0.0087
     30 O         142.1623  130.9129  155.7151 O.2     1  UNL1       -0.1686
     31 O         145.0494  131.7084  155.8937 O.2     1  UNL1       -0.1686
     32 C         143.4109  128.8513  156.6191 C.3     1  UNL1        0.0276
     33 C         144.0095  129.8701  155.6952 C.3     1  UNL1        0.1560
     34 N         141.0084  137.6521  155.2675 N.am    1  UNL1       -0.2950
     35 C         139.6103  137.9668  155.7105 C.2     1  UNL1        0.2235
     36 C         138.6274  138.5462  154.7366 C.3     1  UNL1        0.0946
     37 O         139.1949  137.7021  157.1273 O.2     1  UNL1       -0.2751
     38 H         141.2810  137.8259  154.3376 H       1  UNL1        0.1501
@<TRIPOS>BOND
     1    32    33    1
     2    33    29    1
     3    29    30    2
     4    29    31    2
     5    29    23    1
     6    23    24   ar
     7    24    25   ar
     8    25    26   ar
     9    26    22    1
    10    22    34    1
    11    34    35   am
    12    35    36    1
    13    35    37    2
    14    22     1    1
    15     1     2    2
    16     1     3   am
    17     3     5    1
    18     5     6   ar
    19     6     7   ar
    20     7     8   ar
    21     8    11    1
    22    11    12    1
    23    11    14    1
    24    14    15    1
    25    14    16    1
    26    14    17    1
    27    11    18    1
    28    18    19    1
    29    18    20    1
    30    18    21    1
    31     8     9   ar
    32     9    10   ar
    33    26    27   ar
    34    27    28   ar
    35    28    23   ar
    36    10     5   ar
    37    34    38    1
    38     3     4    1
    39    12    13    1
