@<TRIPOS>MOLECULE
*****
 31 34 0 0 0
SMALL
GASTEIGER

@<TRIPOS>ATOM
      1 C         142.3731  143.4279  161.7710 C.ar    1  UNL1        0.1401
      2 C         143.4935  142.6209  161.1849 C.ar    1  UNL1        0.0370
      3 C         143.7706  141.2388  161.6980 C.ar    1  UNL1        0.0044
      4 C         142.9273  140.6638  162.7971 C.ar    1  UNL1        0.0151
      5 C         141.8069  141.4708  163.3833 C.ar    1  UNL1        0.0572
      6 C         141.5298  142.8529  162.8702 C.ar    1  UNL1        0.0518
      7 N         140.9636  140.8959  164.4824 N.am    1  UNL1       -0.2532
      8 C         139.8944  139.9372  164.0488 C.3     1  UNL1        0.1199
      9 C         138.8985  139.2014  164.8955 C.3     1  UNL1        0.1141
     10 N         138.7259  139.2427  166.3850 N.pl3   1  UNL1       -0.2896
     11 C         137.6275  138.3831  166.9369 C.3     1  UNL1        0.1136
     12 C         139.5064  140.0298  167.3956 C.ar    1  UNL1        0.1361
     13 N         139.0065  139.7820  168.7880 N.ar    1  UNL1       -0.2290
     14 C         139.6526  140.4746  169.9511 C.ar    1  UNL1        0.1003
     15 C         140.7986  141.4149  169.7218 C.ar    1  UNL1        0.0209
     16 C         141.2985  141.6627  168.3294 C.ar    1  UNL1        0.0089
     17 C         140.6524  140.9701  167.1664 C.ar    1  UNL1        0.0854
     18 C         141.3008  141.3555  165.8698 C.2     1  UNL1        0.2555
     19 O         142.4369  142.3294  165.9746 O.2     1  UNL1       -0.2695
     20 O         142.0961  144.8100  161.2579 O.3     1  UNL1       -0.4741
     21 C         140.7241  145.1670  160.7681 C.3     1  UNL1        0.1954
     22 C         140.2765  144.7280  159.4055 C.ar    1  UNL1        0.0468
     23 C         139.5858  143.4375  159.0775 C.ar    1  UNL1        0.0062
     24 C         139.3234  143.4144  157.6008 C.ar    1  UNL1        0.0073
     25 C         139.8518  144.6906  157.0161 C.ar    1  UNL1        0.0352
     26 S         140.4409  145.5025  158.1314 S.2     1  UNL1       -0.0873
     27 C         139.7996  145.9631  161.6409 C.3     1  UNL1        0.0658
     28 C         139.0193  145.2813  162.7254 C.3     1  UNL1        0.0727
     29 C         137.8026  143.0131  162.3724 C.3     1  UNL1        0.0859
     30 N         137.7768  144.5128  162.3857 N.3     1  UNL1       -0.2962
     31 H         137.0655  144.7891  163.0625 H       1  UNL1        0.1233
@<TRIPOS>BOND
     1    29    30    1
     2    30    28    1
     3    28    27    1
     4    21    27    1
     5    21    20    1
     6    20     1    1
     7     1     2   ar
     8     2     3   ar
     9     3     4   ar
    10     4     5   ar
    11     5     7    1
    12     7     8    1
    13     8     9    1
    14     9    10    1
    15    10    11    1
    16    10    12    1
    17    12    13   ar
    18    13    14   ar
    19    14    15   ar
    20    15    16   ar
    21    16    17   ar
    22    17    18    1
    23    18    19    2
    24     5     6   ar
    25    21    22    1
    26    22    23   ar
    27    23    24   ar
    28    24    25   ar
    29    25    26   ar
    30     6     1   ar
    31    26    22   ar
    32    18     7   am
    33    17    12   ar
    34    30    31    1
@<TRIPOS>MOLECULE
*****
 31 34 0 0 0
SMALL
GASTEIGER

@<TRIPOS>ATOM
      1 C         141.2853  140.3550  161.8034 C.ar    1  UNL1        0.1401
      2 C         142.0267  139.0967  161.4610 C.ar    1  UNL1        0.0370
      3 C         142.4286  138.1437  162.5474 C.ar    1  UNL1        0.0044
      4 C         142.0892  138.4489  163.9763 C.ar    1  UNL1        0.0151
      5 C         141.3478  139.7072  164.3187 C.ar    1  UNL1        0.0572
      6 C         140.9459  140.6602  163.2323 C.ar    1  UNL1        0.0518
      7 N         141.0084  140.0124  165.7475 N.am    1  UNL1       -0.2532
      8 C         139.6833  139.4974  166.2260 C.3     1  UNL1        0.1199
      9 C         139.0615  139.6351  167.5841 C.3     1  UNL1        0.1141
     10 N         139.6112  140.3218  168.7991 N.pl3   1  UNL1       -0.2896
     11 C         138.7382  140.2850  170.0184 C.3     1  UNL1        0.1136
     12 C         140.9185  141.0404  168.9562 C.ar    1  UNL1        0.1361
     13 N         141.0801  141.5871  170.3436 N.ar    1  UNL1       -0.2290
     14 C         142.3222  142.3432  170.7118 C.ar    1  UNL1        0.1003
     15 C         143.4026  142.5526  169.6926 C.ar    1  UNL1        0.0209
     16 C         143.2410  142.0059  168.3052 C.ar    1  UNL1        0.0089
     17 C         141.9989  141.2498  167.9370 C.ar    1  UNL1        0.0854
     18 C         142.0389  140.7923  166.5090 C.2     1  UNL1        0.2555
     19 O         143.2726  141.1638  165.7409 O.2     1  UNL1       -0.2695
     20 O         140.8834  141.3080  160.7170 O.3     1  UNL1       -0.4741
     21 C         139.4854  141.8498  160.6741 C.3     1  UNL1        0.1954
     22 C         139.1107  143.0264  161.5257 C.ar    1  UNL1        0.0468
     23 C         137.9208  143.1135  162.4348 C.ar    1  UNL1        0.0062
     24 C         137.9348  144.4634  163.0886 C.ar    1  UNL1        0.0073
     25 C         139.1333  145.2107  162.5836 C.ar    1  UNL1        0.0352
     26 S         139.8601  144.3226  161.6176 S.2     1  UNL1       -0.0873
     27 C         138.4621  141.2152  159.7797 C.3     1  UNL1        0.0658
     28 C         137.9696  139.8283  160.0693 C.3     1  UNL1        0.0727
     29 C         138.1512  138.3215  162.1779 C.3     1  UNL1        0.0859
     30 N         137.5124  139.4681  161.4517 N.3     1  UNL1       -0.2962
     31 H         137.6480  140.2962  162.0317 H       1  UNL1        0.1233
@<TRIPOS>BOND
     1    29    30    1
     2    30    28    1
     3    28    27    1
     4    21    27    1
     5    21    20    1
     6    20     1    1
     7     1     2   ar
     8     2     3   ar
     9     3     4   ar
    10     4     5   ar
    11     5     7    1
    12     7     8    1
    13     8     9    1
    14     9    10    1
    15    10    11    1
    16    10    12    1
    17    12    13   ar
    18    13    14   ar
    19    14    15   ar
    20    15    16   ar
    21    16    17   ar
    22    17    18    1
    23    18    19    2
    24     5     6   ar
    25    21    22    1
    26    22    23   ar
    27    23    24   ar
    28    24    25   ar
    29    25    26   ar
    30     6     1   ar
    31    26    22   ar
    32    18     7   am
    33    17    12   ar
    34    30    31    1
@<TRIPOS>MOLECULE
*****
 31 34 0 0 0
SMALL
GASTEIGER

@<TRIPOS>ATOM
      1 C         141.3115  140.2534  161.9651 C.ar    1  UNL1        0.1401
      2 C         141.7912  138.8774  161.6096 C.ar    1  UNL1        0.0370
      3 C         141.9489  137.8382  162.6798 C.ar    1  UNL1        0.0044
      4 C         141.6267  138.1751  164.1056 C.ar    1  UNL1        0.0151
      5 C         141.1470  139.5512  164.4611 C.ar    1  UNL1        0.0572
      6 C         140.9893  140.5903  163.3909 C.ar    1  UNL1        0.0518
      7 N         140.8249  139.8880  165.8868 N.am    1  UNL1       -0.2532
      8 C         139.4808  139.4350  166.3749 C.3     1  UNL1        0.1199
      9 C         138.8692  139.6154  167.7327 C.3     1  UNL1        0.1141
     10 N         139.4508  140.2935  168.9377 N.pl3   1  UNL1       -0.2896
     11 C         138.5807  140.3085  170.1594 C.3     1  UNL1        0.1136
     12 C         140.7875  140.9586  169.0826 C.ar    1  UNL1        0.1361
     13 N         140.9760  141.5152  170.4626 N.ar    1  UNL1       -0.2290
     14 C         142.2497  142.2231  170.8183 C.ar    1  UNL1        0.1003
     15 C         143.3349  142.3744  169.7940 C.ar    1  UNL1        0.0209
     16 C         143.1465  141.8178  168.4139 C.ar    1  UNL1        0.0089
     17 C         141.8728  141.1099  168.0582 C.ar    1  UNL1        0.0854
     18 C         141.8893  140.6334  166.6359 C.2     1  UNL1        0.2555
     19 O         143.1352  140.9434  165.8603 O.2     1  UNL1       -0.2695
     20 O         141.1538  141.2926  160.8949 O.3     1  UNL1       -0.4741
     21 C         140.7774  142.6971  161.2630 C.3     1  UNL1        0.1954
     22 C         141.7455  143.5599  162.0168 C.ar    1  UNL1        0.0468
     23 C         141.3929  144.5690  163.0691 C.ar    1  UNL1        0.0062
     24 C         142.6657  145.1978  163.5533 C.ar    1  UNL1        0.0073
     25 C         143.8050  144.5775  162.8002 C.ar    1  UNL1        0.0352
     26 S         143.2363  143.5652  161.8506 S.2     1  UNL1       -0.0873
     27 C         139.4329  143.2389  160.8773 C.3     1  UNL1        0.0658
     28 C         138.2443  142.9932  161.7586 C.3     1  UNL1        0.0727
     29 C         137.7684  144.0995  164.0607 C.3     1  UNL1        0.0859
     30 N         137.6631  144.1169  162.5645 N.3     1  UNL1       -0.2962
     31 H         138.1182  144.9729  162.2472 H       1  UNL1        0.1233
@<TRIPOS>BOND
     1    29    30    1
     2    30    28    1
     3    28    27    1
     4    21    27    1
     5    21    20    1
     6    20     1    1
     7     1     2   ar
     8     2     3   ar
     9     3     4   ar
    10     4     5   ar
    11     5     7    1
    12     7     8    1
    13     8     9    1
    14     9    10    1
    15    10    11    1
    16    10    12    1
    17    12    13   ar
    18    13    14   ar
    19    14    15   ar
    20    15    16   ar
    21    16    17   ar
    22    17    18    1
    23    18    19    2
    24     5     6   ar
    25    21    22    1
    26    22    23   ar
    27    23    24   ar
    28    24    25   ar
    29    25    26   ar
    30     6     1   ar
    31    26    22   ar
    32    18     7   am
    33    17    12   ar
    34    30    31    1
@<TRIPOS>MOLECULE
*****
 31 34 0 0 0
SMALL
GASTEIGER

@<TRIPOS>ATOM
      1 C         140.5097  143.3703  164.9074 C.ar    1  UNL1        0.1401
      2 C         139.3182  144.0092  165.5572 C.ar    1  UNL1        0.0370
      3 C         138.1564  144.4552  164.7197 C.ar    1  UNL1        0.0044
      4 C         138.1861  144.2624  163.2324 C.ar    1  UNL1        0.0151
      5 C         139.3776  143.6235  162.5827 C.ar    1  UNL1        0.0572
      6 C         140.5394  143.1774  163.4201 C.ar    1  UNL1        0.0518
      7 N         139.4074  143.4307  161.0955 N.am    1  UNL1       -0.2532
      8 C         138.5868  142.2900  160.5705 C.3     1  UNL1        0.1199
      9 C         138.4099  141.8409  159.1503 C.3     1  UNL1        0.1141
     10 N         139.0099  142.4216  157.9042 N.pl3   1  UNL1       -0.2896
     11 C         138.6353  141.7388  156.6222 C.3     1  UNL1        0.1136
     12 C         139.9350  143.5948  157.7705 C.ar    1  UNL1        0.1361
     13 N         140.3006  143.8439  156.3373 N.ar    1  UNL1       -0.2290
     14 C         141.2198  144.9752  155.9835 C.ar    1  UNL1        0.1003
     15 C         141.7733  145.8575  157.0630 C.ar    1  UNL1        0.0209
     16 C         141.4077  145.6084  158.4962 C.ar    1  UNL1        0.0089
     17 C         140.4885  144.4771  158.8500 C.ar    1  UNL1        0.0854
     18 C         140.2537  144.4040  160.3297 C.2     1  UNL1        0.2555
     19 O         140.9584  145.4415  161.1525 O.2     1  UNL1       -0.2695
     20 O         141.6714  142.9242  165.7449 O.3     1  UNL1       -0.4741
     21 C         143.0133  142.7069  165.1109 C.3     1  UNL1        0.1954
     22 C         143.4492  141.3220  164.7339 C.ar    1  UNL1        0.0468
     23 C         144.8258  140.9199  164.2944 C.ar    1  UNL1        0.0062
     24 C         144.8123  139.4454  164.0191 C.ar    1  UNL1        0.0073
     25 C         143.4273  138.9362  164.2884 C.ar    1  UNL1        0.0352
     26 S         142.5848  140.0960  164.7302 S.2     1  UNL1       -0.0873
     27 C         143.9194  143.8743  164.8538 C.3     1  UNL1        0.0658
     28 C         143.4786  144.9789  163.9398 C.3     1  UNL1        0.0727
     29 C         143.9178  143.5906  161.7881 C.3     1  UNL1        0.0859
     30 N         143.8068  144.9183  162.4774 N.3     1  UNL1       -0.2962
     31 H         143.0801  145.4430  161.9906 H       1  UNL1        0.1233
@<TRIPOS>BOND
     1    29    30    1
     2    30    28    1
     3    28    27    1
     4    21    27    1
     5    21    20    1
     6    20     1    1
     7     1     2   ar
     8     2     3   ar
     9     3     4   ar
    10     4     5   ar
    11     5     7    1
    12     7     8    1
    13     8     9    1
    14     9    10    1
    15    10    11    1
    16    10    12    1
    17    12    13   ar
    18    13    14   ar
    19    14    15   ar
    20    15    16   ar
    21    16    17   ar
    22    17    18    1
    23    18    19    2
    24     5     6   ar
    25    21    22    1
    26    22    23   ar
    27    23    24   ar
    28    24    25   ar
    29    25    26   ar
    30     6     1   ar
    31    26    22   ar
    32    18     7   am
    33    17    12   ar
    34    30    31    1
@<TRIPOS>MOLECULE
*****
 31 34 0 0 0
SMALL
GASTEIGER

@<TRIPOS>ATOM
      1 C         141.6445  139.9908  165.8757 C.ar    1  UNL1        0.1401
      2 C         142.6237  139.1349  166.6232 C.ar    1  UNL1        0.0370
      3 C         143.8601  138.6352  165.9366 C.ar    1  UNL1        0.0044
      4 C         144.1175  138.9913  164.5024 C.ar    1  UNL1        0.0151
      5 C         143.1383  139.8472  163.7548 C.ar    1  UNL1        0.0572
      6 C         141.9018  140.3469  164.4415 C.ar    1  UNL1        0.0518
      7 N         143.3956  140.2033  162.3207 N.am    1  UNL1       -0.2532
      8 C         144.0239  141.5450  162.0858 C.3     1  UNL1        0.1199
      9 C         144.4024  142.1855  160.7833 C.3     1  UNL1        0.1141
     10 N         144.2460  141.6424  159.3938 N.pl3   1  UNL1       -0.2896
     11 C         144.7266  142.5349  158.2882 C.3     1  UNL1        0.1136
     12 C         143.6725  140.3247  158.9637 C.ar    1  UNL1        0.1361
     13 N         143.7025  140.1749  157.4715 N.ar    1  UNL1       -0.2290
     14 C         143.1738  138.9251  156.8325 C.ar    1  UNL1        0.1003
     15 C         142.6151  137.8251  157.6857 C.ar    1  UNL1        0.0209
     16 C         142.5851  137.9749  159.1778 C.ar    1  UNL1        0.0089
     17 C         143.1138  139.2247  159.8169 C.ar    1  UNL1        0.0854
     18 C         142.9906  139.1708  161.3108 C.2     1  UNL1        0.2555
     19 O         142.3818  137.9185  161.8688 O.2     1  UNL1       -0.2695
     20 O         140.4080  140.4904  166.5624 O.3     1  UNL1       -0.4741
     21 C         139.1794  140.8030  165.7607 C.3     1  UNL1        0.1954
     22 C         138.9462  142.1970  165.2584 C.ar    1  UNL1        0.0468
     23 C         137.7844  142.6512  164.4253 C.ar    1  UNL1        0.0062
     24 C         137.9541  144.1164  164.1529 C.ar    1  UNL1        0.0073
     25 C         139.2208  144.5679  164.8176 C.ar    1  UNL1        0.0352
     26 S         139.8340  143.3816  165.5008 S.2     1  UNL1       -0.0873
     27 C         138.1839  139.7216  165.4614 C.3     1  UNL1        0.0658
     28 C         138.5886  138.2808  165.5615 C.3     1  UNL1        0.0727
     29 C         138.8750  137.7436  163.0358 C.3     1  UNL1        0.0859
     30 N         139.3659  137.6411  164.4495 N.3     1  UNL1       -0.2962
     31 H         140.2990  138.0527  164.4678 H       1  UNL1        0.1233
@<TRIPOS>BOND
     1    29    30    1
     2    30    28    1
     3    28    27    1
     4    21    27    1
     5    21    20    1
     6    20     1    1
     7     1     2   ar
     8     2     3   ar
     9     3     4   ar
    10     4     5   ar
    11     5     7    1
    12     7     8    1
    13     8     9    1
    14     9    10    1
    15    10    11    1
    16    10    12    1
    17    12    13   ar
    18    13    14   ar
    19    14    15   ar
    20    15    16   ar
    21    16    17   ar
    22    17    18    1
    23    18    19    2
    24     5     6   ar
    25    21    22    1
    26    22    23   ar
    27    23    24   ar
    28    24    25   ar
    29    25    26   ar
    30     6     1   ar
    31    26    22   ar
    32    18     7   am
    33    17    12   ar
    34    30    31    1
@<TRIPOS>MOLECULE
*****
 31 34 0 0 0
SMALL
GASTEIGER

@<TRIPOS>ATOM
      1 C         143.6761  142.7782  162.2841 C.ar    1  UNL1        0.1401
      2 C         145.0735  142.2569  162.4446 C.ar    1  UNL1        0.0370
      3 C         145.3648  141.1925  163.4606 C.ar    1  UNL1        0.0044
      4 C         144.2588  140.6494  164.3162 C.ar    1  UNL1        0.0151
      5 C         142.8614  141.1708  164.1556 C.ar    1  UNL1        0.0572
      6 C         142.5701  142.2351  163.1396 C.ar    1  UNL1        0.0518
      7 N         141.7555  140.6277  165.0110 N.am    1  UNL1       -0.2532
      8 C         140.8715  139.6053  164.3604 C.3     1  UNL1        0.1199
      9 C         139.6934  138.8815  164.9420 C.3     1  UNL1        0.1141
     10 N         139.1083  139.0015  166.3180 N.pl3   1  UNL1       -0.2896
     11 C         137.9172  138.1333  166.5967 C.3     1  UNL1        0.1136
     12 C         139.5568  139.8747  167.4522 C.ar    1  UNL1        0.1361
     13 N         138.6911  139.6882  168.6629 N.ar    1  UNL1       -0.2290
     14 C         138.9697  140.4707  169.9118 C.ar    1  UNL1        0.1003
     15 C         140.1141  141.4398  169.9501 C.ar    1  UNL1        0.0209
     16 C         140.9798  141.6263  168.7395 C.ar    1  UNL1        0.0089
     17 C         140.7011  140.8437  167.4905 C.ar    1  UNL1        0.0854
     18 C         141.6796  141.1788  166.4041 C.2     1  UNL1        0.2555
     19 O         142.7198  142.2001  166.7574 O.2     1  UNL1       -0.2695
     20 O         143.3848  143.8426  161.2681 O.3     1  UNL1       -0.4741
     21 C         142.7274  143.4800  159.9696 C.3     1  UNL1        0.1954
     22 C         143.2216  142.3032  159.1817 C.ar    1  UNL1        0.0468
     23 C         144.4836  142.2511  158.3725 C.ar    1  UNL1        0.0062
     24 C         144.5825  140.8876  157.7553 C.ar    1  UNL1        0.0073
     25 C         143.3817  140.0969  158.1830 C.ar    1  UNL1        0.0352
     26 S         142.5406  140.9718  159.0645 S.2     1  UNL1       -0.0873
     27 C         141.5757  144.2941  159.4589 C.3     1  UNL1        0.0658
     28 C         140.4919  144.7325  160.3987 C.3     1  UNL1        0.0727
     29 C         140.7292  145.4377  162.8879 C.3     1  UNL1        0.0859
     30 N         140.7735  145.7853  161.4293 N.3     1  UNL1       -0.2962
     31 H         141.7108  146.1400  161.2395 H       1  UNL1        0.1233
@<TRIPOS>BOND
     1    29    30    1
     2    30    28    1
     3    28    27    1
     4    21    27    1
     5    21    20    1
     6    20     1    1
     7     1     2   ar
     8     2     3   ar
     9     3     4   ar
    10     4     5   ar
    11     5     7    1
    12     7     8    1
    13     8     9    1
    14     9    10    1
    15    10    11    1
    16    10    12    1
    17    12    13   ar
    18    13    14   ar
    19    14    15   ar
    20    15    16   ar
    21    16    17   ar
    22    17    18    1
    23    18    19    2
    24     5     6   ar
    25    21    22    1
    26    22    23   ar
    27    23    24   ar
    28    24    25   ar
    29    25    26   ar
    30     6     1   ar
    31    26    22   ar
    32    18     7   am
    33    17    12   ar
    34    30    31    1
@<TRIPOS>MOLECULE
*****
 31 34 0 0 0
SMALL
GASTEIGER

@<TRIPOS>ATOM
      1 C         140.4051  142.6033  165.1716 C.ar    1  UNL1        0.1401
      2 C         139.6946  143.7120  165.8901 C.ar    1  UNL1        0.0370
      3 C         138.9017  144.7215  165.1141 C.ar    1  UNL1        0.0044
      4 C         138.8192  144.6225  163.6197 C.ar    1  UNL1        0.0151
      5 C         139.5296  143.5138  162.9012 C.ar    1  UNL1        0.0572
      6 C         140.3225  142.5042  163.6771 C.ar    1  UNL1        0.0518
      7 N         139.4471  143.4147  161.4068 N.am    1  UNL1       -0.2532
      8 C         138.4820  142.3973  160.8742 C.3     1  UNL1        0.1199
      9 C         138.1720  142.0600  159.4459 C.3     1  UNL1        0.1141
     10 N         138.7507  142.6568  158.1973 N.pl3   1  UNL1       -0.2896
     11 C         138.2288  142.0983  156.9066 C.3     1  UNL1        0.1136
     12 C         139.7822  143.7383  158.0686 C.ar    1  UNL1        0.1361
     13 N         140.0822  144.0411  156.6304 N.ar    1  UNL1       -0.2290
     14 C         141.0899  145.0956  156.2805 C.ar    1  UNL1        0.1003
     15 C         141.7975  145.8473  157.3687 C.ar    1  UNL1        0.0209
     16 C         141.4975  145.5445  158.8068 C.ar    1  UNL1        0.0089
     17 C         140.4898  144.4900  159.1568 C.ar    1  UNL1        0.0854
     18 C         140.3407  144.3459  160.6424 C.2     1  UNL1        0.2555
     19 O         141.1986  145.2532  161.4735 O.2     1  UNL1       -0.2695
     20 O         141.1980  141.5937  165.9475 O.3     1  UNL1       -0.4741
     21 C         142.6382  141.8596  166.2713 C.3     1  UNL1        0.1954
     22 C         143.6952  141.6307  165.2319 C.ar    1  UNL1        0.0468
     23 C         144.6108  142.6728  164.6611 C.ar    1  UNL1        0.0062
     24 C         145.5035  142.0057  163.6571 C.ar    1  UNL1        0.0073
     25 C         145.1397  140.5513  163.6074 C.ar    1  UNL1        0.0352
     26 S         144.0221  140.3195  164.5806 S.2     1  UNL1       -0.0873
     27 C         143.0217  142.3542  167.6345 C.3     1  UNL1        0.0658
     28 C         142.2226  141.9408  168.8347 C.3     1  UNL1        0.0727
     29 C         140.5061  143.6931  169.6908 C.3     1  UNL1        0.0859
     30 N         140.8036  142.4026  168.9863 N.3     1  UNL1       -0.2962
     31 H         140.4187  142.4852  168.0453 H       1  UNL1        0.1233
@<TRIPOS>BOND
     1    29    30    1
     2    30    28    1
     3    28    27    1
     4    21    27    1
     5    21    20    1
     6    20     1    1
     7     1     2   ar
     8     2     3   ar
     9     3     4   ar
    10     4     5   ar
    11     5     7    1
    12     7     8    1
    13     8     9    1
    14     9    10    1
    15    10    11    1
    16    10    12    1
    17    12    13   ar
    18    13    14   ar
    19    14    15   ar
    20    15    16   ar
    21    16    17   ar
    22    17    18    1
    23    18    19    2
    24     5     6   ar
    25    21    22    1
    26    22    23   ar
    27    23    24   ar
    28    24    25   ar
    29    25    26   ar
    30     6     1   ar
    31    26    22   ar
    32    18     7   am
    33    17    12   ar
    34    30    31    1
@<TRIPOS>MOLECULE
*****
 31 34 0 0 0
SMALL
GASTEIGER

@<TRIPOS>ATOM
      1 C         142.5692  141.8697  165.4516 C.ar    1  UNL1        0.1401
      2 C         143.7100  142.5665  166.1323 C.ar    1  UNL1        0.0370
      3 C         144.4753  143.6347  165.4091 C.ar    1  UNL1        0.0044
      4 C         144.1000  144.0063  164.0051 C.ar    1  UNL1        0.0151
      5 C         142.9592  143.3095  163.3244 C.ar    1  UNL1        0.0572
      6 C         142.1939  142.2413  164.0477 C.ar    1  UNL1        0.0518
      7 N         142.5839  143.6810  161.9205 N.am    1  UNL1       -0.2532
      8 C         141.4689  144.6754  161.7863 C.3     1  UNL1        0.1199
      9 C         140.8677  145.2434  160.5349 C.3     1  UNL1        0.1141
     10 N         141.2332  144.9573  159.1086 N.pl3   1  UNL1       -0.2896
     11 C         140.4365  145.6932  158.0724 C.3     1  UNL1        0.1136
     12 C         142.2900  144.0325  158.5812 C.ar    1  UNL1        0.1361
     13 N         142.3267  144.0405  157.0817 N.ar    1  UNL1       -0.2290
     14 C         143.3157  143.1814  156.3512 C.ar    1  UNL1        0.1003
     15 C         144.2680  142.3144  157.1201 C.ar    1  UNL1        0.0209
     16 C         144.2314  142.3064  158.6196 C.ar    1  UNL1        0.0089
     17 C         143.2424  143.1654  159.3502 C.ar    1  UNL1        0.0854
     18 C         143.3731  143.0091  160.8363 C.2     1  UNL1        0.2555
     19 O         144.4334  142.0544  161.2994 O.2     1  UNL1       -0.2695
     20 O         141.8039  140.8015  166.1749 O.3     1  UNL1       -0.4741
     21 C         140.4532  141.1066  166.7515 C.3     1  UNL1        0.1954
     22 C         140.3412  141.7149  168.1180 C.ar    1  UNL1        0.0468
     23 C         140.4924  143.1697  168.4506 C.ar    1  UNL1        0.0062
     24 C         140.3029  143.3291  169.9301 C.ar    1  UNL1        0.0073
     25 C         140.0346  141.9728  170.5118 C.ar    1  UNL1        0.0352
     26 S         140.0582  140.9752  169.3920 S.2     1  UNL1       -0.0873
     27 C         139.2145  140.8034  165.9617 C.3     1  UNL1        0.0658
     28 C         139.1444  139.5613  165.1238 C.3     1  UNL1        0.0727
     29 C         137.6679  138.4235  166.9336 C.3     1  UNL1        0.0859
     30 N         138.3813  138.3672  165.6152 N.3     1  UNL1       -0.2962
     31 H         137.6770  138.1564  164.9081 H       1  UNL1        0.1233
@<TRIPOS>BOND
     1    29    30    1
     2    30    28    1
     3    28    27    1
     4    21    27    1
     5    21    20    1
     6    20     1    1
     7     1     2   ar
     8     2     3   ar
     9     3     4   ar
    10     4     5   ar
    11     5     7    1
    12     7     8    1
    13     8     9    1
    14     9    10    1
    15    10    11    1
    16    10    12    1
    17    12    13   ar
    18    13    14   ar
    19    14    15   ar
    20    15    16   ar
    21    16    17   ar
    22    17    18    1
    23    18    19    2
    24     5     6   ar
    25    21    22    1
    26    22    23   ar
    27    23    24   ar
    28    24    25   ar
    29    25    26   ar
    30     6     1   ar
    31    26    22   ar
    32    18     7   am
    33    17    12   ar
    34    30    31    1
@<TRIPOS>MOLECULE
*****
 31 34 0 0 0
SMALL
GASTEIGER

@<TRIPOS>ATOM
      1 C         142.9652  141.9823  165.5195 C.ar    1  UNL1        0.1401
      2 C         143.9587  142.8774  166.1991 C.ar    1  UNL1        0.0370
      3 C         144.5268  144.0582  165.4689 C.ar    1  UNL1        0.0044
      4 C         144.1014  144.3439  164.0591 C.ar    1  UNL1        0.0151
      5 C         143.1079  143.4488  163.3795 C.ar    1  UNL1        0.0572
      6 C         142.5398  142.2681  164.1097 C.ar    1  UNL1        0.0518
      7 N         142.6825  143.7345  161.9698 N.am    1  UNL1       -0.2532
      8 C         141.5174  144.6670  161.8179 C.3     1  UNL1        0.1199
      9 C         140.8604  145.1452  160.5570 C.3     1  UNL1        0.1141
     10 N         141.2064  144.8090  159.1367 N.pl3   1  UNL1       -0.2896
     11 C         140.3509  145.4558  158.0879 C.3     1  UNL1        0.1136
     12 C         142.2946  143.9116  158.6264 C.ar    1  UNL1        0.1361
     13 N         142.2962  143.8497  157.1277 N.ar    1  UNL1       -0.2290
     14 C         143.3089  143.0050  156.4130 C.ar    1  UNL1        0.1003
     15 C         144.3200  142.2221  157.1971 C.ar    1  UNL1        0.0209
     16 C         144.3184  142.2840  158.6958 C.ar    1  UNL1        0.0089
     17 C         143.3058  143.1288  159.4104 C.ar    1  UNL1        0.0854
     18 C         143.4783  143.0500  160.8984 C.2     1  UNL1        0.2555
     19 O         144.5944  142.1702  161.3784 O.2     1  UNL1       -0.2695
     20 O         142.3971  140.8016  166.2496 O.3     1  UNL1       -0.4741
     21 C         142.3031  139.4705  165.5646 C.3     1  UNL1        0.1954
     22 C         140.9610  138.9050  165.2056 C.ar    1  UNL1        0.0468
     23 C         140.7005  137.8227  164.2002 C.ar    1  UNL1        0.0062
     24 C         139.2222  137.5714  164.1622 C.ar    1  UNL1        0.0073
     25 C         138.5690  138.4983  165.1441 C.ar    1  UNL1        0.0352
     26 S         139.6436  139.3225  165.7890 S.2     1  UNL1       -0.0873
     27 C         143.5511  138.7049  165.2385 C.3     1  UNL1        0.0658
     28 C         144.7002  139.3951  164.5656 C.3     1  UNL1        0.0727
     29 C         143.7796  138.6940  162.2395 C.3     1  UNL1        0.0859
     30 N         144.7528  139.4783  163.0689 N.3     1  UNL1       -0.2962
     31 H         144.6242  140.4601  162.8239 H       1  UNL1        0.1233
@<TRIPOS>BOND
     1    29    30    1
     2    30    28    1
     3    28    27    1
     4    21    27    1
     5    21    20    1
     6    20     1    1
     7     1     2   ar
     8     2     3   ar
     9     3     4   ar
    10     4     5   ar
    11     5     7    1
    12     7     8    1
    13     8     9    1
    14     9    10    1
    15    10    11    1
    16    10    12    1
    17    12    13   ar
    18    13    14   ar
    19    14    15   ar
    20    15    16   ar
    21    16    17   ar
    22    17    18    1
    23    18    19    2
    24     5     6   ar
    25    21    22    1
    26    22    23   ar
    27    23    24   ar
    28    24    25   ar
    29    25    26   ar
    30     6     1   ar
    31    26    22   ar
    32    18     7   am
    33    17    12   ar
    34    30    31    1
