@<TRIPOS>MOLECULE
*****
 26 27 0 0 0
SMALL
GASTEIGER

@<TRIPOS>ATOM
      1 N         139.9925  142.9322  165.2484 N.3     1  UNL1       -0.2704
      2 C         141.2699  143.6229  164.8729 C.3     1  UNL1        0.0723
      3 C         141.2604  144.7041  163.8333 C.3     1  UNL1        0.0218
      4 C         139.9734  145.0947  163.1691 C.3     1  UNL1        0.0550
      5 C         138.6960  144.4040  163.5446 C.3     1  UNL1        0.1784
      6 F         137.4089  144.7945  162.8804 F       1  UNL1       -0.2357
      7 C         138.7055  143.3227  164.5842 C.3     1  UNL1        0.1078
      8 C         140.0020  141.8509  166.2880 C.3     1  UNL1        0.0722
      9 C         139.9521  140.4105  165.8724 C.3     1  UNL1        0.0173
     10 C         138.4177  139.2514  164.9769 C.3     1  UNL1        0.0000
     11 C         138.8598  139.5194  166.3850 C.3     1  UNL1        0.0013
     12 C         139.3019  139.7874  167.7931 C.3     1  UNL1        0.0000
     13 C         137.7674  138.6283  166.8975 C.3     1  UNL1        0.0000
     14 C         139.9639  146.1760  162.1295 C.3     1  UNL1        0.0925
     15 N         139.6046  145.8488  160.7104 N.am    1  UNL1       -0.3008
     16 C         140.6239  145.2260  159.8032 C.2     1  UNL1        0.2459
     17 O         142.0025  144.9302  160.3150 O.2     1  UNL1       -0.2701
     18 H         138.6998  146.0429  160.3745 H       1  UNL1        0.1497
     19 C         140.2646  144.8988  158.3840 C.ar    1  UNL1        0.0550
     20 C         140.1368  145.9971  157.3705 C.ar    1  UNL1        0.0160
     21 C         139.7774  145.6700  155.9513 C.ar    1  UNL1        0.0587
     22 CL        139.6496  146.7683  154.9378 Cl      1  UNL1       -0.0822
     23 C         139.5458  144.2446  155.5458 C.ar    1  UNL1        0.0228
     24 C         139.6736  143.1462  156.5595 C.ar    1  UNL1        0.0587
     25 CL        139.4421  141.7208  156.1540 Cl      1  UNL1       -0.0822
     26 C         140.0330  143.4734  157.9785 C.ar    1  UNL1        0.0160
@<TRIPOS>BOND
     1    10    11    1
     2    11    12    1
     3    11    13    1
     4    11     9    1
     5     9     8    1
     6     8     1    1
     7     1     2    1
     8     2     3    1
     9     3     4    1
    10     4    14    1
    11    14    15    1
    12    15    16   am
    13    16    17    2
    14    16    19    1
    15    19    20   ar
    16    20    21   ar
    17    21    22    1
    18    21    23   ar
    19    23    24   ar
    20    24    25    1
    21    24    26   ar
    22     4     5    1
    23     5     6    1
    24     5     7    1
    25     7     1    1
    26    26    19   ar
    27    15    18    1
@<TRIPOS>MOLECULE
*****
 26 27 0 0 0
SMALL
GASTEIGER

@<TRIPOS>ATOM
      1 N         139.8377  142.6894  165.2399 N.3     1  UNL1       -0.2704
      2 C         141.1606  143.3285  164.9376 C.3     1  UNL1        0.0723
      3 C         141.2413  144.4548  163.9502 C.3     1  UNL1        0.0218
      4 C         139.9990  144.9419  163.2650 C.3     1  UNL1        0.0550
      5 C         138.6761  144.3028  163.5674 C.3     1  UNL1        0.1784
      6 F         137.4338  144.7900  162.8822 F       1  UNL1       -0.2357
      7 C         138.5955  143.1766  164.5548 C.3     1  UNL1        0.1078
      8 C         139.7571  141.5632  166.2274 C.3     1  UNL1        0.0722
      9 C         140.6703  141.5420  167.4171 C.3     1  UNL1        0.0173
     10 C         140.5481  143.1105  168.8400 C.3     1  UNL1        0.0000
     11 C         140.1043  141.6783  168.7995 C.3     1  UNL1        0.0013
     12 C         139.6605  140.2460  168.7590 C.3     1  UNL1        0.0000
     13 C         139.5383  141.8145  170.1820 C.3     1  UNL1        0.0000
     14 C         140.0797  146.0682  162.2776 C.3     1  UNL1        0.0925
     15 N         139.6647  145.8479  160.8531 N.am    1  UNL1       -0.3008
     16 C         140.6256  145.2341  159.8784 C.2     1  UNL1        0.2459
     17 O         142.0014  144.8407  160.3281 O.2     1  UNL1       -0.2701
     18 H         138.7617  146.1061  160.5579 H       1  UNL1        0.1497
     19 C         140.2105  145.0138  158.4538 C.ar    1  UNL1        0.0550
     20 C         139.7281  143.6636  158.0135 C.ar    1  UNL1        0.0160
     21 C         139.3130  143.4433  156.5889 C.ar    1  UNL1        0.0587
     22 CL        138.8306  142.0930  156.1485 Cl      1  UNL1       -0.0822
     23 C         139.3805  144.5733  155.6048 C.ar    1  UNL1        0.0228
     24 C         139.8631  145.9236  156.0452 C.ar    1  UNL1        0.0587
     25 CL        139.9306  147.0536  155.0611 Cl      1  UNL1       -0.0822
     26 C         140.2780  146.1438  157.4697 C.ar    1  UNL1        0.0160
@<TRIPOS>BOND
     1    10    11    1
     2    11    12    1
     3    11    13    1
     4    11     9    1
     5     9     8    1
     6     8     1    1
     7     1     2    1
     8     2     3    1
     9     3     4    1
    10     4    14    1
    11    14    15    1
    12    15    16   am
    13    16    17    2
    14    16    19    1
    15    19    20   ar
    16    20    21   ar
    17    21    22    1
    18    21    23   ar
    19    23    24   ar
    20    24    25    1
    21    24    26   ar
    22     4     5    1
    23     5     6    1
    24     5     7    1
    25     7     1    1
    26    26    19   ar
    27    15    18    1
@<TRIPOS>MOLECULE
*****
 26 27 0 0 0
SMALL
GASTEIGER

@<TRIPOS>ATOM
      1 N         139.9847  142.7880  164.9885 N.3     1  UNL1       -0.2704
      2 C         138.7331  143.0930  164.2202 C.3     1  UNL1        0.0723
      3 C         138.7054  144.2429  163.2575 C.3     1  UNL1        0.0218
      4 C         139.9293  145.0878  163.0629 C.3     1  UNL1        0.0550
      5 C         141.1810  144.7829  163.8312 C.3     1  UNL1        0.1784
      6 F         142.4051  145.6279  163.6367 F       1  UNL1       -0.2357
      7 C         141.2087  143.6330  164.7940 C.3     1  UNL1        0.1078
      8 C         140.0124  141.6381  165.9513 C.3     1  UNL1        0.0722
      9 C         139.8430  140.2350  165.4488 C.3     1  UNL1        0.0173
     10 C         139.2221  139.8712  167.4443 C.3     1  UNL1        0.0000
     11 C         138.8488  139.3200  166.1001 C.3     1  UNL1        0.0013
     12 C         138.4754  138.7689  164.7560 C.3     1  UNL1        0.0000
     13 C         137.8545  138.4051  166.7515 C.3     1  UNL1        0.0000
     14 C         139.9016  146.2378  162.1001 C.3     1  UNL1        0.0925
     15 N         139.5964  145.9959  160.6516 N.am    1  UNL1       -0.3008
     16 C         140.6208  145.3490  159.7671 C.2     1  UNL1        0.2459
     17 O         141.9503  144.9440  160.3312 O.2     1  UNL1       -0.2701
     18 H         138.7238  146.2618  160.2814 H       1  UNL1        0.1497
     19 C         140.3155  145.1072  158.3185 C.ar    1  UNL1        0.0550
     20 C         140.3531  143.7129  157.7667 C.ar    1  UNL1        0.0160
     21 C         140.0478  143.4711  156.3181 C.ar    1  UNL1        0.0587
     22 CL        140.0854  142.0768  155.7663 Cl      1  UNL1       -0.0822
     23 C         139.7050  144.6236  155.4214 C.ar    1  UNL1        0.0228
     24 C         139.6674  146.0180  155.9732 C.ar    1  UNL1        0.0587
     25 CL        139.3246  147.1705  155.0765 Cl      1  UNL1       -0.0822
     26 C         139.9727  146.2597  157.4218 C.ar    1  UNL1        0.0160
@<TRIPOS>BOND
     1    10    11    1
     2    11    12    1
     3    11    13    1
     4    11     9    1
     5     9     8    1
     6     8     1    1
     7     1     2    1
     8     2     3    1
     9     3     4    1
    10     4    14    1
    11    14    15    1
    12    15    16   am
    13    16    17    2
    14    16    19    1
    15    19    20   ar
    16    20    21   ar
    17    21    22    1
    18    21    23   ar
    19    23    24   ar
    20    24    25    1
    21    24    26   ar
    22     4     5    1
    23     5     6    1
    24     5     7    1
    25     7     1    1
    26    26    19   ar
    27    15    18    1
@<TRIPOS>MOLECULE
*****
 26 27 0 0 0
SMALL
GASTEIGER

@<TRIPOS>ATOM
      1 N         139.7613  142.1242  164.3438 N.3     1  UNL1       -0.2704
      2 C         138.7279  142.3410  163.2785 C.3     1  UNL1        0.0723
      3 C         138.7167  143.6192  162.4936 C.3     1  UNL1        0.0218
      4 C         139.7388  144.6806  162.7740 C.3     1  UNL1        0.0550
      5 C         140.7722  144.4637  163.8394 C.3     1  UNL1        0.1784
      6 F         141.7945  145.5251  164.1198 F       1  UNL1       -0.2357
      7 C         140.7835  143.1855  164.6243 C.3     1  UNL1        0.1078
      8 C         139.7726  140.8460  165.1287 C.3     1  UNL1        0.0722
      9 C         138.4798  140.1789  165.4943 C.3     1  UNL1        0.0173
     10 C         138.9226  138.5533  164.2054 C.3     1  UNL1        0.0000
     11 C         138.4132  138.6849  165.6101 C.3     1  UNL1        0.0013
     12 C         137.9038  138.8165  167.0148 C.3     1  UNL1        0.0000
     13 C         138.3466  137.1909  165.7259 C.3     1  UNL1        0.0000
     14 C         139.7276  145.9588  161.9891 C.3     1  UNL1        0.0925
     15 N         139.8125  145.9204  160.4920 N.am    1  UNL1       -0.3008
     16 C         141.0397  145.3745  159.8242 C.2     1  UNL1        0.2459
     17 O         142.1820  144.8671  160.6534 O.2     1  UNL1       -0.2701
     18 H         139.0628  146.2534  159.9477 H       1  UNL1        0.1497
     19 C         141.1246  145.3361  158.3270 C.ar    1  UNL1        0.0550
     20 C         140.1795  146.1572  157.5009 C.ar    1  UNL1        0.0160
     21 C         140.2644  146.1188  156.0038 C.ar    1  UNL1        0.0587
     22 CL        139.3193  146.9399  155.1777 Cl      1  UNL1       -0.0822
     23 C         141.2944  145.2593  155.3328 C.ar    1  UNL1        0.0228
     24 C         142.2396  144.4381  156.1590 C.ar    1  UNL1        0.0587
     25 CL        143.2697  143.5786  155.4880 Cl      1  UNL1       -0.0822
     26 C         142.1547  144.4766  157.6561 C.ar    1  UNL1        0.0160
@<TRIPOS>BOND
     1    10    11    1
     2    11    12    1
     3    11    13    1
     4    11     9    1
     5     9     8    1
     6     8     1    1
     7     1     2    1
     8     2     3    1
     9     3     4    1
    10     4    14    1
    11    14    15    1
    12    15    16   am
    13    16    17    2
    14    16    19    1
    15    19    20   ar
    16    20    21   ar
    17    21    22    1
    18    21    23   ar
    19    23    24   ar
    20    24    25    1
    21    24    26   ar
    22     4     5    1
    23     5     6    1
    24     5     7    1
    25     7     1    1
    26    26    19   ar
    27    15    18    1
@<TRIPOS>MOLECULE
*****
 26 27 0 0 0
SMALL
GASTEIGER

@<TRIPOS>ATOM
      1 N         139.4072  141.1425  166.0947 N.3     1  UNL1       -0.2704
      2 C         140.0539  142.4958  166.0856 C.3     1  UNL1        0.0723
      3 C         139.6616  143.5076  165.0500 C.3     1  UNL1        0.0218
      4 C         138.6226  143.1660  164.0235 C.3     1  UNL1        0.0550
      5 C         137.9759  141.8127  164.0326 C.3     1  UNL1        0.1784
      6 F         136.9368  141.4711  163.0060 F       1  UNL1       -0.2357
      7 C         138.3682  140.8009  165.0682 C.3     1  UNL1        0.1078
      8 C         139.7994  140.1307  167.1302 C.3     1  UNL1        0.0722
      9 C         140.2294  140.5819  168.4946 C.3     1  UNL1        0.0173
     10 C         140.5184  139.9333  170.4935 C.3     1  UNL1        0.0000
     11 C         141.3110  139.8409  169.2234 C.3     1  UNL1        0.0013
     12 C         142.1036  139.7486  167.9532 C.3     1  UNL1        0.0000
     13 C         142.3925  139.0999  169.9522 C.3     1  UNL1        0.0000
     14 C         138.2304  144.1778  162.9879 C.3     1  UNL1        0.0925
     15 N         138.8658  144.1458  161.6296 N.am    1  UNL1       -0.3008
     16 C         140.1352  144.9041  161.3773 C.2     1  UNL1        0.2459
     17 O         140.7691  145.6944  162.4834 O.2     1  UNL1       -0.2701
     18 H         138.4498  143.6271  160.9036 H       1  UNL1        0.1497
     19 C         140.7707  144.8721  160.0189 C.ar    1  UNL1        0.0550
     20 C         140.2024  145.7009  158.9054 C.ar    1  UNL1        0.0160
     21 C         140.8379  145.6689  157.5469 C.ar    1  UNL1        0.0587
     22 CL        140.2696  146.4977  156.4334 Cl      1  UNL1       -0.0822
     23 C         142.0416  144.8079  157.3022 C.ar    1  UNL1        0.0228
     24 C         142.6098  143.9791  158.4158 C.ar    1  UNL1        0.0587
     25 CL        143.8135  143.1181  158.1710 Cl      1  UNL1       -0.0822
     26 C         141.9744  144.0111  159.7741 C.ar    1  UNL1        0.0160
@<TRIPOS>BOND
     1    10    11    1
     2    11    12    1
     3    11    13    1
     4    11     9    1
     5     9     8    1
     6     8     1    1
     7     1     2    1
     8     2     3    1
     9     3     4    1
    10     4    14    1
    11    14    15    1
    12    15    16   am
    13    16    17    2
    14    16    19    1
    15    19    20   ar
    16    20    21   ar
    17    21    22    1
    18    21    23   ar
    19    23    24   ar
    20    24    25    1
    21    24    26   ar
    22     4     5    1
    23     5     6    1
    24     5     7    1
    25     7     1    1
    26    26    19   ar
    27    15    18    1
@<TRIPOS>MOLECULE
*****
 26 27 0 0 0
SMALL
GASTEIGER

@<TRIPOS>ATOM
      1 N         140.8384  142.3618  166.2256 N.3     1  UNL1       -0.2704
      2 C         142.2048  142.5057  165.6239 C.3     1  UNL1        0.0723
      3 C         142.4511  143.5336  164.5596 C.3     1  UNL1        0.0218
      4 C         141.3311  144.4176  164.0970 C.3     1  UNL1        0.0550
      5 C         139.9647  144.2736  164.6987 C.3     1  UNL1        0.1784
      6 F         138.8445  145.1576  164.2362 F       1  UNL1       -0.2357
      7 C         139.7183  143.2458  165.7631 C.3     1  UNL1        0.1078
      8 C         140.5920  141.3339  167.2899 C.3     1  UNL1        0.0722
      9 C         140.3565  141.7638  168.7076 C.3     1  UNL1        0.0173
     10 C         140.5655  143.6308  169.6926 C.3     1  UNL1        0.0000
     11 C         141.4517  142.4398  169.4781 C.3     1  UNL1        0.0013
     12 C         142.3378  141.2487  169.2636 C.3     1  UNL1        0.0000
     13 C         142.5468  143.1158  170.2486 C.3     1  UNL1        0.0000
     14 C         141.5774  145.4455  163.0327 C.3     1  UNL1        0.0925
     15 N         141.5819  145.0428  161.5878 N.am    1  UNL1       -0.3008
     16 C         140.4505  145.4516  160.6917 C.2     1  UNL1        0.2459
     17 O         139.3148  146.2632  161.2406 O.2     1  UNL1       -0.2701
     18 H         142.3273  144.5101  161.2275 H       1  UNL1        0.1497
     19 C         140.4550  145.0489  159.2468 C.ar    1  UNL1        0.0550
     20 C         140.2581  146.0839  158.1791 C.ar    1  UNL1        0.0160
     21 C         140.2626  145.6812  156.7341 C.ar    1  UNL1        0.0587
     22 CL        140.0657  146.7162  155.6665 Cl      1  UNL1       -0.0822
     23 C         140.4640  144.2434  156.3569 C.ar    1  UNL1        0.0228
     24 C         140.6610  143.2084  157.4247 C.ar    1  UNL1        0.0587
     25 CL        140.8624  141.7706  157.0475 Cl      1  UNL1       -0.0822
     26 C         140.6564  143.6112  158.8696 C.ar    1  UNL1        0.0160
@<TRIPOS>BOND
     1    10    11    1
     2    11    12    1
     3    11    13    1
     4    11     9    1
     5     9     8    1
     6     8     1    1
     7     1     2    1
     8     2     3    1
     9     3     4    1
    10     4    14    1
    11    14    15    1
    12    15    16   am
    13    16    17    2
    14    16    19    1
    15    19    20   ar
    16    20    21   ar
    17    21    22    1
    18    21    23   ar
    19    23    24   ar
    20    24    25    1
    21    24    26   ar
    22     4     5    1
    23     5     6    1
    24     5     7    1
    25     7     1    1
    26    26    19   ar
    27    15    18    1
@<TRIPOS>MOLECULE
*****
 26 27 0 0 0
SMALL
GASTEIGER

@<TRIPOS>ATOM
      1 N         140.6739  141.6634  165.6817 N.3     1  UNL1       -0.2704
      2 C         141.9657  141.7118  164.9208 C.3     1  UNL1        0.0723
      3 C         142.3063  142.9183  164.0973 C.3     1  UNL1        0.0218
      4 C         141.3552  144.0765  164.0347 C.3     1  UNL1        0.0550
      5 C         140.0635  144.0281  164.7956 C.3     1  UNL1        0.1784
      6 F         139.1123  145.1864  164.7331 F       1  UNL1       -0.2357
      7 C         139.7228  142.8216  165.6191 C.3     1  UNL1        0.1078
      8 C         140.3333  140.4568  166.5052 C.3     1  UNL1        0.0722
      9 C         140.7300  139.0897  166.0324 C.3     1  UNL1        0.0173
     10 C         141.1001  137.9646  164.2725 C.3     1  UNL1        0.0000
     11 C         139.8735  138.3618  165.0391 C.3     1  UNL1        0.0013
     12 C         138.6469  138.7590  165.8057 C.3     1  UNL1        0.0000
     13 C         139.0171  137.6338  164.0458 C.3     1  UNL1        0.0000
     14 C         141.6959  145.2831  163.2112 C.3     1  UNL1        0.0925
     15 N         142.0695  145.1245  161.7673 N.am    1  UNL1       -0.3008
     16 C         141.0009  145.0923  160.7152 C.2     1  UNL1        0.2459
     17 O         139.5585  145.2187  161.1070 O.2     1  UNL1       -0.2701
     18 H         143.0162  145.0415  161.5100 H       1  UNL1        0.1497
     19 C         141.3746  144.9336  159.2711 C.ar    1  UNL1        0.0550
     20 C         142.3940  143.9097  158.8683 C.ar    1  UNL1        0.0160
     21 C         142.7678  143.7510  157.4243 C.ar    1  UNL1        0.0587
     22 CL        143.7872  142.7271  157.0215 Cl      1  UNL1       -0.0822
     23 C         142.1221  144.6164  156.3830 C.ar    1  UNL1        0.0228
     24 C         141.1026  145.6404  156.7859 C.ar    1  UNL1        0.0587
     25 CL        140.4569  146.5058  155.7446 Cl      1  UNL1       -0.0822
     26 C         140.7289  145.7990  158.2299 C.ar    1  UNL1        0.0160
@<TRIPOS>BOND
     1    10    11    1
     2    11    12    1
     3    11    13    1
     4    11     9    1
     5     9     8    1
     6     8     1    1
     7     1     2    1
     8     2     3    1
     9     3     4    1
    10     4    14    1
    11    14    15    1
    12    15    16   am
    13    16    17    2
    14    16    19    1
    15    19    20   ar
    16    20    21   ar
    17    21    22    1
    18    21    23   ar
    19    23    24   ar
    20    24    25    1
    21    24    26   ar
    22     4     5    1
    23     5     6    1
    24     5     7    1
    25     7     1    1
    26    26    19   ar
    27    15    18    1
@<TRIPOS>MOLECULE
*****
 26 27 0 0 0
SMALL
GASTEIGER

@<TRIPOS>ATOM
      1 N         141.8626  139.8310  164.8874 N.3     1  UNL1       -0.2704
      2 C         141.3046  138.5598  164.3195 C.3     1  UNL1        0.0723
      3 C         141.9950  137.8845  163.1718 C.3     1  UNL1        0.0218
      4 C         143.2434  138.4805  162.5919 C.3     1  UNL1        0.0550
      5 C         143.8014  139.7517  163.1598 C.3     1  UNL1        0.1784
      6 F         145.0498  140.3477  162.5799 F       1  UNL1       -0.2357
      7 C         143.1110  140.4270  164.3076 C.3     1  UNL1        0.1078
      8 C         141.1722  140.5063  166.0352 C.3     1  UNL1        0.0722
      9 C         139.6934  140.7519  165.9814 C.3     1  UNL1        0.0173
     10 C         139.4329  139.7981  167.8582 C.3     1  UNL1        0.0000
     11 C         138.7428  139.7285  166.5282 C.3     1  UNL1        0.0013
     12 C         138.0528  139.6588  165.1982 C.3     1  UNL1        0.0000
     13 C         137.7922  138.7051  167.0750 C.3     1  UNL1        0.0000
     14 C         143.9337  137.8052  161.4441 C.3     1  UNL1        0.0925
     15 N         143.1314  137.2772  160.2920 N.am    1  UNL1       -0.3008
     16 C         143.0616  138.0516  159.0093 C.2     1  UNL1        0.2459
     17 O         143.7940  139.3541  158.8787 O.2     1  UNL1       -0.2701
     18 H         142.6507  136.4224  160.3777 H       1  UNL1        0.1497
     19 C         142.2592  137.5236  157.8571 C.ar    1  UNL1        0.0550
     20 C         142.6855  136.2655  157.1604 C.ar    1  UNL1        0.0160
     21 C         141.8831  135.7374  156.0082 C.ar    1  UNL1        0.0587
     22 CL        142.3094  134.4793  155.3115 Cl      1  UNL1       -0.0822
     23 C         140.6544  136.4675  155.5529 C.ar    1  UNL1        0.0228
     24 C         140.2282  137.7256  156.2496 C.ar    1  UNL1        0.0587
     25 CL        138.9995  138.4557  155.7943 Cl      1  UNL1       -0.0822
     26 C         141.0305  138.2536  157.4017 C.ar    1  UNL1        0.0160
@<TRIPOS>BOND
     1    10    11    1
     2    11    12    1
     3    11    13    1
     4    11     9    1
     5     9     8    1
     6     8     1    1
     7     1     2    1
     8     2     3    1
     9     3     4    1
    10     4    14    1
    11    14    15    1
    12    15    16   am
    13    16    17    2
    14    16    19    1
    15    19    20   ar
    16    20    21   ar
    17    21    22    1
    18    21    23   ar
    19    23    24   ar
    20    24    25    1
    21    24    26   ar
    22     4     5    1
    23     5     6    1
    24     5     7    1
    25     7     1    1
    26    26    19   ar
    27    15    18    1
@<TRIPOS>MOLECULE
*****
 26 27 0 0 0
SMALL
GASTEIGER

@<TRIPOS>ATOM
      1 N         140.6074  143.2461  165.8525 N.3     1  UNL1       -0.2704
      2 C         139.3181  143.9494  165.5475 C.3     1  UNL1        0.0723
      3 C         139.2043  144.8099  164.3242 C.3     1  UNL1        0.0218
      4 C         140.3798  144.9671  163.4058 C.3     1  UNL1        0.0550
      5 C         141.6691  144.2639  163.7108 C.3     1  UNL1        0.1784
      6 F         142.8447  144.4211  162.7925 F       1  UNL1       -0.2357
      7 C         141.7829  143.4034  164.9342 C.3     1  UNL1        0.1078
      8 C         140.7212  142.3856  167.0759 C.3     1  UNL1        0.0722
      9 C         140.5617  142.9934  168.4379 C.3     1  UNL1        0.0173
     10 C         139.7935  142.1666  170.2341 C.3     1  UNL1        0.0000
     11 C         141.1607  142.3176  169.6356 C.3     1  UNL1        0.0013
     12 C         142.5278  142.4686  169.0371 C.3     1  UNL1        0.0000
     13 C         141.7596  141.6418  170.8333 C.3     1  UNL1        0.0000
     14 C         140.2660  145.8277  162.1825 C.3     1  UNL1        0.0925
     15 N         139.6321  145.2814  160.9376 N.am    1  UNL1       -0.3008
     16 C         140.4908  144.8497  159.7861 C.2     1  UNL1        0.2459
     17 O         141.9835  144.9642  159.8793 O.2     1  UNL1       -0.2701
     18 H         138.6524  145.2063  160.8764 H       1  UNL1        0.1497
     19 C         139.8568  144.3035  158.5411 C.ar    1  UNL1        0.0550
     20 C         139.0276  143.0553  158.6074 C.ar    1  UNL1        0.0160
     21 C         138.3936  142.5091  157.3625 C.ar    1  UNL1        0.0587
     22 CL        137.5643  141.2610  157.4288 Cl      1  UNL1       -0.0822
     23 C         138.5889  143.2110  156.0514 C.ar    1  UNL1        0.0228
     24 C         139.4183  144.4592  155.9851 C.ar    1  UNL1        0.0587
     25 CL        139.6136  145.1611  154.6740 Cl      1  UNL1       -0.0822
     26 C         140.0522  145.0054  157.2300 C.ar    1  UNL1        0.0160
@<TRIPOS>BOND
     1    10    11    1
     2    11    12    1
     3    11    13    1
     4    11     9    1
     5     9     8    1
     6     8     1    1
     7     1     2    1
     8     2     3    1
     9     3     4    1
    10     4    14    1
    11    14    15    1
    12    15    16   am
    13    16    17    2
    14    16    19    1
    15    19    20   ar
    16    20    21   ar
    17    21    22    1
    18    21    23   ar
    19    23    24   ar
    20    24    25    1
    21    24    26   ar
    22     4     5    1
    23     5     6    1
    24     5     7    1
    25     7     1    1
    26    26    19   ar
    27    15    18    1
