@<TRIPOS>MOLECULE
*****
 19 20 0 0 0
SMALL
GASTEIGER

@<TRIPOS>ATOM
      1 C         140.9739  139.0305  164.5852 C.ar    1  UNL1        0.0284
      2 C         140.3124  137.6910  164.4507 C.ar    1  UNL1        0.0001
      3 C         138.9568  137.4605  165.0500 C.ar    1  UNL1       -0.0001
      4 C         138.2627  138.5695  165.7838 C.ar    1  UNL1        0.0031
      5 C         138.9243  139.9090  165.9182 C.ar    1  UNL1        0.0372
      6 C         140.2799  140.1395  165.3189 C.ar    1  UNL1        0.1426
      7 C         142.3296  139.2610  163.9858 C.3     1  UNL1        0.1023
      8 C         143.4613  138.3055  166.1203 C.3     1  UNL1        0.0899
      9 N         143.5627  139.0192  164.8049 N.3     1  UNL1       -0.2664
     10 C         144.8972  139.4911  164.3086 C.3     1  UNL1        0.0899
     11 O         140.9414  141.4790  165.4533 O.3     1  UNL1       -0.4537
     12 C         141.4552  141.9312  166.7881 C.ar    1  UNL1        0.1462
     13 C         142.9063  141.7638  167.1291 C.ar    1  UNL1        0.0384
     14 C         143.4201  142.2160  168.4638 C.ar    1  UNL1        0.0154
     15 C         142.4828  142.8355  169.4576 C.ar    1  UNL1        0.0684
     16 CL        142.9965  143.2877  170.7923 Cl      1  UNL1       -0.0814
     17 C         141.0317  143.0029  169.1166 C.ar    1  UNL1        0.0712
     18 CL        140.0944  143.6225  170.1104 Cl      1  UNL1       -0.0813
     19 C         140.5179  142.5507  167.7818 C.ar    1  UNL1        0.0497
@<TRIPOS>BOND
     1     8     9    1
     2     9    10    1
     3     9     7    1
     4     7     1    1
     5     1     2   ar
     6     2     3   ar
     7     3     4   ar
     8     4     5   ar
     9     5     6   ar
    10     6    11    1
    11    11    12    1
    12    12    13   ar
    13    13    14   ar
    14    14    15   ar
    15    15    16    1
    16    15    17   ar
    17    17    18    1
    18    17    19   ar
    19     6     1   ar
    20    19    12   ar
@<TRIPOS>MOLECULE
*****
 19 20 0 0 0
SMALL
GASTEIGER

@<TRIPOS>ATOM
      1 C         140.2092  137.8974  164.7308 C.ar    1  UNL1        0.0284
      2 C         138.8154  137.5588  165.1696 C.ar    1  UNL1        0.0001
      3 C         138.1628  138.3452  166.2676 C.ar    1  UNL1       -0.0001
      4 C         138.9040  139.4703  166.9268 C.ar    1  UNL1        0.0031
      5 C         140.2979  139.8090  166.4880 C.ar    1  UNL1        0.0372
      6 C         140.9504  139.0225  165.3900 C.ar    1  UNL1        0.1426
      7 C         140.8617  137.1109  163.6328 C.3     1  UNL1        0.1023
      8 C         139.5846  137.9921  161.5489 C.3     1  UNL1        0.0899
      9 N         140.8747  137.6470  162.2319 N.3     1  UNL1       -0.2664
     10 C         142.1779  137.8381  161.5140 C.3     1  UNL1        0.0899
     11 O         142.3443  139.3612  164.9513 O.3     1  UNL1       -0.4537
     12 C         142.6748  140.7578  164.5153 C.ar    1  UNL1        0.1462
     13 C         142.0834  141.3089  163.2517 C.ar    1  UNL1        0.0384
     14 C         142.4139  142.7055  162.8157 C.ar    1  UNL1        0.0154
     15 C         143.3358  143.5512  163.6432 C.ar    1  UNL1        0.0684
     16 CL        143.6664  144.9478  163.2072 Cl      1  UNL1       -0.0814
     17 C         143.9273  143.0002  164.9067 C.ar    1  UNL1        0.0712
     18 CL        144.8493  143.8459  165.7343 Cl      1  UNL1       -0.0813
     19 C         143.5968  141.6035  165.3428 C.ar    1  UNL1        0.0497
@<TRIPOS>BOND
     1     8     9    1
     2     9    10    1
     3     9     7    1
     4     7     1    1
     5     1     2   ar
     6     2     3   ar
     7     3     4   ar
     8     4     5   ar
     9     5     6   ar
    10     6    11    1
    11    11    12    1
    12    12    13   ar
    13    13    14   ar
    14    14    15   ar
    15    15    16    1
    16    15    17   ar
    17    17    18    1
    18    17    19   ar
    19     6     1   ar
    20    19    12   ar
@<TRIPOS>MOLECULE
*****
 19 20 0 0 0
SMALL
GASTEIGER

@<TRIPOS>ATOM
      1 C         140.0847  140.6442  167.7310 C.ar    1  UNL1        0.0284
      2 C         139.3735  140.4967  169.0434 C.ar    1  UNL1        0.0001
      3 C         139.4694  141.5820  170.0744 C.ar    1  UNL1       -0.0001
      4 C         140.2763  142.8147  169.7930 C.ar    1  UNL1        0.0031
      5 C         140.9875  142.9621  168.4806 C.ar    1  UNL1        0.0372
      6 C         140.8917  141.8769  167.4496 C.ar    1  UNL1        0.1426
      7 C         139.9889  139.5589  166.6999 C.3     1  UNL1        0.1023
      8 C         138.3003  139.7517  164.7348 C.3     1  UNL1        0.0899
      9 N         138.6614  139.2191  166.0898 N.3     1  UNL1       -0.2664
     10 C         137.6949  138.3467  166.8347 C.3     1  UNL1        0.0899
     11 O         141.6029  142.0244  166.1371 O.3     1  UNL1       -0.4537
     12 C         141.1347  143.0431  165.1407 C.ar    1  UNL1        0.1462
     13 C         142.1269  143.9432  164.4657 C.ar    1  UNL1        0.0384
     14 C         141.6587  144.9620  163.4693 C.ar    1  UNL1        0.0154
     15 C         140.1984  145.0808  163.1479 C.ar    1  UNL1        0.0684
     16 CL        139.7302  146.0995  162.1515 Cl      1  UNL1       -0.0814
     17 C         139.2062  144.1808  163.8228 C.ar    1  UNL1        0.0712
     18 CL        137.7459  144.2996  163.5014 Cl      1  UNL1       -0.0813
     19 C         139.6744  143.1619  164.8193 C.ar    1  UNL1        0.0497
@<TRIPOS>BOND
     1     8     9    1
     2     9    10    1
     3     9     7    1
     4     7     1    1
     5     1     2   ar
     6     2     3   ar
     7     3     4   ar
     8     4     5   ar
     9     5     6   ar
    10     6    11    1
    11    11    12    1
    12    12    13   ar
    13    13    14   ar
    14    14    15   ar
    15    15    16    1
    16    15    17   ar
    17    17    18    1
    18    17    19   ar
    19     6     1   ar
    20    19    12   ar
@<TRIPOS>MOLECULE
*****
 19 20 0 0 0
SMALL
GASTEIGER

@<TRIPOS>ATOM
      1 C         141.2339  144.5101  164.0307 C.ar    1  UNL1        0.0284
      2 C         142.3632  145.4469  163.7196 C.ar    1  UNL1        0.0001
      3 C         143.7714  145.0664  164.0691 C.ar    1  UNL1       -0.0001
      4 C         144.0502  143.7490  164.7299 C.ar    1  UNL1        0.0031
      5 C         142.9209  142.8121  165.0410 C.ar    1  UNL1        0.0372
      6 C         141.5127  143.1927  164.6915 C.ar    1  UNL1        0.1426
      7 C         139.8257  144.8906  163.6811 C.3     1  UNL1        0.1023
      8 C         137.7896  143.5825  162.7360 C.3     1  UNL1        0.0899
      9 N         139.1312  144.2216  162.5322 N.3     1  UNL1       -0.2664
     10 C         139.7784  144.1917  161.1792 C.3     1  UNL1        0.0899
     11 O         140.3834  142.2557  165.0027 O.3     1  UNL1       -0.4537
     12 C         140.1910  141.7518  166.4023 C.ar    1  UNL1        0.1462
     13 C         139.7029  140.3526  166.6352 C.ar    1  UNL1        0.0384
     14 C         139.5104  139.8487  168.0349 C.ar    1  UNL1        0.0154
     15 C         139.8061  140.7438  169.2016 C.ar    1  UNL1        0.0684
     16 CL        139.6137  140.2399  170.6012 Cl      1  UNL1       -0.0814
     17 C         140.2942  142.1429  168.9687 C.ar    1  UNL1        0.0712
     18 CL        140.5899  143.0381  170.1354 Cl      1  UNL1       -0.0813
     19 C         140.4867  142.6469  167.5690 C.ar    1  UNL1        0.0497
@<TRIPOS>BOND
     1     8     9    1
     2     9    10    1
     3     9     7    1
     4     7     1    1
     5     1     2   ar
     6     2     3   ar
     7     3     4   ar
     8     4     5   ar
     9     5     6   ar
    10     6    11    1
    11    11    12    1
    12    12    13   ar
    13    13    14   ar
    14    14    15   ar
    15    15    16    1
    16    15    17   ar
    17    17    18    1
    18    17    19   ar
    19     6     1   ar
    20    19    12   ar
@<TRIPOS>MOLECULE
*****
 19 20 0 0 0
SMALL
GASTEIGER

@<TRIPOS>ATOM
      1 C         141.1663  139.7017  165.6529 C.ar    1  UNL1        0.0284
      2 C         141.4083  138.2918  165.2018 C.ar    1  UNL1        0.0001
      3 C         140.2578  137.4395  164.7545 C.ar    1  UNL1       -0.0001
      4 C         138.8654  137.9971  164.7585 C.ar    1  UNL1        0.0031
      5 C         138.6233  139.4070  165.2097 C.ar    1  UNL1        0.0372
      6 C         139.7738  140.2593  165.6569 C.ar    1  UNL1        0.1426
      7 C         142.3167  140.5540  166.1002 C.3     1  UNL1        0.1023
      8 C         142.8230  142.1812  168.0613 C.3     1  UNL1        0.0899
      9 N         142.5488  140.7933  167.5626 N.3     1  UNL1       -0.2664
     10 C         142.5067  139.6447  168.5265 C.3     1  UNL1        0.0899
     11 O         139.5317  141.6692  166.1081 O.3     1  UNL1       -0.4537
     12 C         139.5234  142.7861  165.1069 C.ar    1  UNL1        0.1462
     13 C         138.2733  143.0938  164.3369 C.ar    1  UNL1        0.0384
     14 C         138.2649  144.2107  163.3357 C.ar    1  UNL1        0.0154
     15 C         139.5066  145.0199  163.1044 C.ar    1  UNL1        0.0684
     16 CL        139.4982  146.1368  162.1032 Cl      1  UNL1       -0.0814
     17 C         140.7566  144.7122  163.8743 C.ar    1  UNL1        0.0712
     18 CL        141.9982  145.5214  163.6429 Cl      1  UNL1       -0.0813
     19 C         140.7650  143.5953  164.8755 C.ar    1  UNL1        0.0497
@<TRIPOS>BOND
     1     8     9    1
     2     9    10    1
     3     9     7    1
     4     7     1    1
     5     1     2   ar
     6     2     3   ar
     7     3     4   ar
     8     4     5   ar
     9     5     6   ar
    10     6    11    1
    11    11    12    1
    12    12    13   ar
    13    13    14   ar
    14    14    15   ar
    15    15    16    1
    16    15    17   ar
    17    17    18    1
    18    17    19   ar
    19     6     1   ar
    20    19    12   ar
@<TRIPOS>MOLECULE
*****
 19 20 0 0 0
SMALL
GASTEIGER

@<TRIPOS>ATOM
      1 C         138.5364  141.7989  164.3534 C.ar    1  UNL1        0.0284
      2 C         137.4809  142.6266  163.6820 C.ar    1  UNL1        0.0001
      3 C         137.7274  144.0813  163.4121 C.ar    1  UNL1       -0.0001
      4 C         139.0295  144.7085  163.8137 C.ar    1  UNL1        0.0031
      5 C         140.0850  143.8808  164.4851 C.ar    1  UNL1        0.0372
      6 C         139.8384  142.4260  164.7550 C.ar    1  UNL1        0.1426
      7 C         138.2898  140.3441  164.6233 C.3     1  UNL1        0.1023
      8 C         138.9783  137.8829  164.1562 C.3     1  UNL1        0.0899
      9 N         138.8463  139.3045  163.6963 N.3     1  UNL1       -0.2664
     10 C         139.2708  139.6865  162.3092 C.3     1  UNL1        0.0899
     11 O         140.8940  141.5984  165.4265 O.3     1  UNL1       -0.4537
     12 C         141.4136  141.9967  166.7760 C.ar    1  UNL1        0.1462
     13 C         142.8807  141.8997  167.0734 C.ar    1  UNL1        0.0384
     14 C         143.4003  142.2980  168.4230 C.ar    1  UNL1        0.0154
     15 C         142.4529  142.7933  169.4752 C.ar    1  UNL1        0.0684
     16 CL        142.9726  143.1916  170.8247 Cl      1  UNL1       -0.0814
     17 C         140.9859  142.8903  169.1778 C.ar    1  UNL1        0.0712
     18 CL        140.0386  143.3856  170.2300 Cl      1  UNL1       -0.0813
     19 C         140.4662  142.4920  167.8282 C.ar    1  UNL1        0.0497
@<TRIPOS>BOND
     1     8     9    1
     2     9    10    1
     3     9     7    1
     4     7     1    1
     5     1     2   ar
     6     2     3   ar
     7     3     4   ar
     8     4     5   ar
     9     5     6   ar
    10     6    11    1
    11    11    12    1
    12    12    13   ar
    13    13    14   ar
    14    14    15   ar
    15    15    16    1
    16    15    17   ar
    17    17    18    1
    18    17    19   ar
    19     6     1   ar
    20    19    12   ar
@<TRIPOS>MOLECULE
*****
 19 20 0 0 0
SMALL
GASTEIGER

@<TRIPOS>ATOM
      1 C         139.0662  141.8701  164.1870 C.ar    1  UNL1        0.0284
      2 C         137.8006  142.6451  163.9692 C.ar    1  UNL1        0.0001
      3 C         137.6634  144.0299  164.5290 C.ar    1  UNL1       -0.0001
      4 C         138.7918  144.6397  165.3067 C.ar    1  UNL1        0.0031
      5 C         140.0574  143.8647  165.5246 C.ar    1  UNL1        0.0372
      6 C         140.1946  142.4799  164.9647 C.ar    1  UNL1        0.1426
      7 C         139.2034  140.4853  163.6271 C.3     1  UNL1        0.1023
      8 C         138.0856  139.4777  165.7450 C.3     1  UNL1        0.0899
      9 N         138.8651  139.2960  164.4764 N.3     1  UNL1       -0.2664
     10 C         139.3063  137.9250  164.0570 C.3     1  UNL1        0.0899
     11 O         141.4603  141.7048  165.1826 O.3     1  UNL1       -0.4537
     12 C         141.8448  141.2699  166.5657 C.ar    1  UNL1        0.1462
     13 C         141.3336  139.9700  167.1125 C.ar    1  UNL1        0.0384
     14 C         141.7181  139.5351  168.4956 C.ar    1  UNL1        0.0154
     15 C         142.6138  140.4002  169.3320 C.ar    1  UNL1        0.0684
     16 CL        142.9983  139.9653  170.7151 Cl      1  UNL1       -0.0814
     17 C         143.1249  141.7001  168.7852 C.ar    1  UNL1        0.0712
     18 CL        144.0206  142.5651  169.6216 Cl      1  UNL1       -0.0813
     19 C         142.7405  142.1350  167.4021 C.ar    1  UNL1        0.0497
@<TRIPOS>BOND
     1     8     9    1
     2     9    10    1
     3     9     7    1
     4     7     1    1
     5     1     2   ar
     6     2     3   ar
     7     3     4   ar
     8     4     5   ar
     9     5     6   ar
    10     6    11    1
    11    11    12    1
    12    12    13   ar
    13    13    14   ar
    14    14    15   ar
    15    15    16    1
    16    15    17   ar
    17    17    18    1
    18    17    19   ar
    19     6     1   ar
    20    19    12   ar
@<TRIPOS>MOLECULE
*****
 19 20 0 0 0
SMALL
GASTEIGER

@<TRIPOS>ATOM
      1 C         138.3490  141.7656  164.5212 C.ar    1  UNL1        0.0284
      2 C         137.5675  142.6894  163.6348 C.ar    1  UNL1        0.0001
      3 C         137.7753  144.1720  163.7277 C.ar    1  UNL1       -0.0001
      4 C         138.7646  144.7308  164.7070 C.ar    1  UNL1        0.0031
      5 C         139.5461  143.8069  165.5934 C.ar    1  UNL1        0.0372
      6 C         139.3383  142.3243  165.5005 C.ar    1  UNL1        0.1426
      7 C         138.1412  140.2829  164.4283 C.3     1  UNL1        0.1023
      8 C         139.9546  140.1263  162.5743 C.3     1  UNL1        0.0899
      9 N         139.0238  139.4561  163.5410 N.3     1  UNL1       -0.2664
     10 C         138.9756  137.9589  163.6203 C.3     1  UNL1        0.0899
     11 O         140.1199  141.4004  166.3869 O.3     1  UNL1       -0.4537
     12 C         141.4292  140.8394  165.9170 C.ar    1  UNL1        0.1462
     13 C         141.6850  139.3635  165.9976 C.ar    1  UNL1        0.0384
     14 C         142.9943  138.8025  165.5276 C.ar    1  UNL1        0.0154
     15 C         144.0479  139.7173  164.9770 C.ar    1  UNL1        0.0684
     16 CL        145.3572  139.1563  164.5071 Cl      1  UNL1       -0.0814
     17 C         143.7921  141.1931  164.8964 C.ar    1  UNL1        0.0712
     18 CL        144.8457  142.1079  164.3459 Cl      1  UNL1       -0.0813
     19 C         142.4828  141.7542  165.3664 C.ar    1  UNL1        0.0497
@<TRIPOS>BOND
     1     8     9    1
     2     9    10    1
     3     9     7    1
     4     7     1    1
     5     1     2   ar
     6     2     3   ar
     7     3     4   ar
     8     4     5   ar
     9     5     6   ar
    10     6    11    1
    11    11    12    1
    12    12    13   ar
    13    13    14   ar
    14    14    15   ar
    15    15    16    1
    16    15    17   ar
    17    17    18    1
    18    17    19   ar
    19     6     1   ar
    20    19    12   ar
@<TRIPOS>MOLECULE
*****
 19 20 0 0 0
SMALL
GASTEIGER

@<TRIPOS>ATOM
      1 C         142.6791  140.5147  167.4934 C.ar    1  UNL1        0.0284
      2 C         143.0017  139.0535  167.5969 C.ar    1  UNL1        0.0001
      3 C         143.4146  138.2881  166.3748 C.ar    1  UNL1       -0.0001
      4 C         143.5049  138.9839  165.0490 C.ar    1  UNL1        0.0031
      5 C         143.1823  140.4451  164.9455 C.ar    1  UNL1        0.0372
      6 C         142.7694  141.2105  166.1676 C.ar    1  UNL1        0.1426
      7 C         142.2663  141.2801  168.7156 C.3     1  UNL1        0.1023
      8 C         139.7542  140.6268  168.8270 C.3     1  UNL1        0.0899
      9 N         140.8303  141.6686  168.9076 N.3     1  UNL1       -0.2664
     10 C         140.4703  143.0991  169.1803 C.3     1  UNL1        0.0899
     11 O         142.4468  142.6718  166.0640 O.3     1  UNL1       -0.4537
     12 C         141.2435  143.1211  165.2895 C.ar    1  UNL1        0.1462
     13 C         139.9106  142.4781  165.5348 C.ar    1  UNL1        0.0384
     14 C         138.7072  142.9275  164.7602 C.ar    1  UNL1        0.0154
     15 C         138.8367  144.0197  163.7403 C.ar    1  UNL1        0.0684
     16 CL        137.6333  144.4690  162.9657 Cl      1  UNL1       -0.0814
     17 C         140.1695  144.6627  163.4950 C.ar    1  UNL1        0.0712
     18 CL        140.2989  145.7550  162.4751 Cl      1  UNL1       -0.0813
     19 C         141.3729  144.2134  164.2695 C.ar    1  UNL1        0.0497
@<TRIPOS>BOND
     1     8     9    1
     2     9    10    1
     3     9     7    1
     4     7     1    1
     5     1     2   ar
     6     2     3   ar
     7     3     4   ar
     8     4     5   ar
     9     5     6   ar
    10     6    11    1
    11    11    12    1
    12    12    13   ar
    13    13    14   ar
    14    14    15   ar
    15    15    16    1
    16    15    17   ar
    17    17    18    1
    18    17    19   ar
    19     6     1   ar
    20    19    12   ar
