@<TRIPOS>MOLECULE
*****
 36 40 0 0 0
SMALL
GASTEIGER

@<TRIPOS>ATOM
      1 C         142.3906  140.9239  160.9359 C.ar    1  UNL1        0.1432
      2 C         143.6001  141.1315  160.0733 C.ar    1  UNL1        0.0371
      3 C         143.8483  142.4679  159.4388 C.ar    1  UNL1        0.0047
      4 C         142.8871  143.5966  159.6669 C.ar    1  UNL1        0.0195
      5 C         141.6776  143.3889  160.5294 C.ar    1  UNL1        0.0887
      6 N         140.7163  144.5176  160.7575 N.ar    1  UNL1       -0.2238
      7 C         139.5069  144.3100  161.6201 C.ar    1  UNL1        0.2000
      8 N         139.2586  142.9737  162.2546 N.ar    1  UNL1       -0.2088
      9 C         140.2198  141.8450  162.0265 C.ar    1  UNL1        0.1383
     10 C         141.4294  142.0526  161.1639 C.ar    1  UNL1        0.0833
     11 N         139.9716  140.5086  162.6610 N.pl3   1  UNL1       -0.2978
     12 H         139.9738  139.6935  162.1089 H       1  UNL1        0.1536
     13 C         139.7200  140.4142  164.1367 C.ar    1  UNL1        0.0495
     14 C         140.4616  141.3112  165.0829 C.ar    1  UNL1        0.0162
     15 C         140.2100  141.2168  166.5586 C.ar    1  UNL1        0.0201
     16 C         139.2168  140.2253  167.0882 C.ar    1  UNL1        0.0799
     17 C         138.4751  139.3283  166.1420 C.ar    1  UNL1        0.0394
     18 C         137.5624  138.4548  166.9506 C.ar    1  UNL1        0.1216
     19 N         137.7399  138.8120  168.3966 N.ar    1  UNL1       -0.1673
     20 N         138.7624  139.9062  168.4816 N.ar    1  UNL1       -0.2448
     21 C         138.7267  139.4227  164.6662 C.ar    1  UNL1        0.0177
     22 C         139.2457  140.5657  169.7392 C.3     1  UNL1        0.1727
     23 C         140.6236  141.1557  169.7949 C.ar    1  UNL1        0.0836
     24 C         140.7994  142.6380  169.9430 C.ar    1  UNL1        0.0168
     25 C         142.1773  143.2280  169.9986 C.ar    1  UNL1        0.0029
     26 C         143.3795  142.3359  169.9061 C.ar    1  UNL1        0.0207
     27 C         143.2038  140.8536  169.7580 C.ar    1  UNL1        0.0985
     28 N         141.8259  140.2635  169.7024 N.ar    1  UNL1       -0.2462
     29 O         142.1424  139.5875  161.5704 O.3     1  UNL1       -0.4698
     30 C         144.0240  137.8038  161.4043 C.3     1  UNL1        0.0574
     31 C         143.2765  138.8334  162.1988 C.3     1  UNL1        0.2413
     32 C         143.6632  139.1088  163.6217 C.2     1  UNL1        0.2660
     33 O         144.8043  140.0346  163.9231 O.2     1  UNL1       -0.2710
     34 N         142.9087  138.4585  164.7433 N.am    1  UNL1       -0.2731
     35 C         143.2954  138.7339  166.1662 C.3     1  UNL1        0.1150
     36 C         141.7676  137.5327  164.4419 C.3     1  UNL1        0.1150
@<TRIPOS>BOND
     1    31    30    1
     2    31    29    1
     3    29     1    1
     4     1     2   ar
     5     2     3   ar
     6     3     4   ar
     7     4     5   ar
     8     5     6   ar
     9     6     7   ar
    10     7     8   ar
    11     8     9   ar
    12     9    11    1
    13    11    13    1
    14    13    14   ar
    15    14    15   ar
    16    15    16   ar
    17    16    17   ar
    18    17    18   ar
    19    18    19   ar
    20    19    20   ar
    21    20    22    1
    22    22    23    1
    23    23    24   ar
    24    24    25   ar
    25    25    26   ar
    26    26    27   ar
    27    27    28   ar
    28    17    21   ar
    29     9    10   ar
    30    31    32    1
    31    32    33    2
    32    32    34   am
    33    34    35    1
    34    34    36    1
    35    10     1   ar
    36    10     5   ar
    37    21    13   ar
    38    20    16   ar
    39    28    23   ar
    40    11    12    1
@<TRIPOS>MOLECULE
*****
 36 40 0 0 0
SMALL
GASTEIGER

@<TRIPOS>ATOM
      1 C         139.3352  141.7759  164.0442 C.ar    1  UNL1        0.1432
      2 C         138.0983  142.3819  164.6382 C.ar    1  UNL1        0.0371
      3 C         137.9155  143.8707  164.6324 C.ar    1  UNL1        0.0047
      4 C         138.9695  144.7535  164.0327 C.ar    1  UNL1        0.0195
      5 C         140.2064  144.1475  163.4388 C.ar    1  UNL1        0.0887
      6 N         141.2605  145.0303  162.8391 N.ar    1  UNL1       -0.2238
      7 C         142.4974  144.4243  162.2451 C.ar    1  UNL1        0.2000
      8 N         142.6802  142.9355  162.2509 N.ar    1  UNL1       -0.2088
      9 C         141.6262  142.0527  162.8506 C.ar    1  UNL1        0.1383
     10 C         140.3892  142.6587  163.4445 C.ar    1  UNL1        0.0833
     11 N         141.8091  140.5639  162.8563 N.pl3   1  UNL1       -0.2978
     12 H         141.8842  140.0805  163.7107 H       1  UNL1        0.1536
     13 C         141.8776  139.8117  161.5604 C.ar    1  UNL1        0.0495
     14 C         143.1746  139.2055  161.1127 C.ar    1  UNL1        0.0162
     15 C         143.2432  138.4533  159.8168 C.ar    1  UNL1        0.0201
     16 C         142.0147  138.3072  158.9686 C.ar    1  UNL1        0.0799
     17 C         140.7177  138.9133  159.4162 C.ar    1  UNL1        0.0394
     18 C         139.6800  138.6074  158.3772 C.ar    1  UNL1        0.1216
     19 N         140.3357  137.8121  157.2874 N.ar    1  UNL1       -0.1673
     20 N         141.7786  137.6266  157.6529 N.ar    1  UNL1       -0.2448
     21 C         140.6492  139.6656  160.7122 C.ar    1  UNL1        0.0177
     22 C         142.8051  136.8899  156.8446 C.3     1  UNL1        0.1727
     23 C         142.6527  135.4176  156.6012 C.ar    1  UNL1        0.0836
     24 C         141.6861  134.9248  155.5654 C.ar    1  UNL1        0.0168
     25 C         141.5337  133.4526  155.3220 C.ar    1  UNL1        0.0029
     26 C         142.3478  132.4731  156.1143 C.ar    1  UNL1        0.0207
     27 C         143.3145  132.9659  157.1500 C.ar    1  UNL1        0.0985
     28 N         143.4669  134.4381  157.3935 N.ar    1  UNL1       -0.2462
     29 O         139.5181  140.2871  164.0500 O.3     1  UNL1       -0.4698
     30 C         138.5304  138.3694  165.4980 C.3     1  UNL1        0.0574
     31 C         139.4678  139.5303  165.3440 C.3     1  UNL1        0.2413
     32 C         140.3549  139.9343  166.4842 C.2     1  UNL1        0.2660
     33 O         139.8551  140.9000  167.5175 O.2     1  UNL1       -0.2710
     34 N         141.7416  139.3727  166.5910 N.am    1  UNL1       -0.2731
     35 C         142.6287  139.7768  167.7312 C.3     1  UNL1        0.1150
     36 C         142.2414  138.4071  165.5577 C.3     1  UNL1        0.1150
@<TRIPOS>BOND
     1    31    30    1
     2    31    29    1
     3    29     1    1
     4     1     2   ar
     5     2     3   ar
     6     3     4   ar
     7     4     5   ar
     8     5     6   ar
     9     6     7   ar
    10     7     8   ar
    11     8     9   ar
    12     9    11    1
    13    11    13    1
    14    13    14   ar
    15    14    15   ar
    16    15    16   ar
    17    16    17   ar
    18    17    18   ar
    19    18    19   ar
    20    19    20   ar
    21    20    22    1
    22    22    23    1
    23    23    24   ar
    24    24    25   ar
    25    25    26   ar
    26    26    27   ar
    27    27    28   ar
    28    17    21   ar
    29     9    10   ar
    30    31    32    1
    31    32    33    2
    32    32    34   am
    33    34    35    1
    34    34    36    1
    35    10     1   ar
    36    10     5   ar
    37    21    13   ar
    38    20    16   ar
    39    28    23   ar
    40    11    12    1
@<TRIPOS>MOLECULE
*****
 36 40 0 0 0
SMALL
GASTEIGER

@<TRIPOS>ATOM
      1 C         141.5008  141.2350  158.4525 C.ar    1  UNL1        0.1432
      2 C         142.8040  141.9006  158.1231 C.ar    1  UNL1        0.0371
      3 C         143.7674  141.2391  157.1827 C.ar    1  UNL1        0.0047
      4 C         143.4275  139.9120  156.5717 C.ar    1  UNL1        0.0195
      5 C         142.1242  139.2465  156.9011 C.ar    1  UNL1        0.0887
      6 N         141.7843  137.9194  156.2900 N.ar    1  UNL1       -0.2238
      7 C         140.4810  137.2539  156.6194 C.ar    1  UNL1        0.2000
      8 N         139.5177  137.9154  157.5598 N.ar    1  UNL1       -0.2088
      9 C         139.8576  139.2424  158.1708 C.ar    1  UNL1        0.1383
     10 C         141.1609  139.9080  157.8415 C.ar    1  UNL1        0.0833
     11 N         138.8942  139.9039  159.1112 N.pl3   1  UNL1       -0.2978
     12 H         138.2530  140.5693  158.7715 H       1  UNL1        0.1536
     13 C         138.9077  139.5516  160.5692 C.ar    1  UNL1        0.0495
     14 C         137.9331  140.2007  161.5067 C.ar    1  UNL1        0.0162
     15 C         137.9466  139.8484  162.9647 C.ar    1  UNL1        0.0201
     16 C         138.9346  138.8470  163.4852 C.ar    1  UNL1        0.0799
     17 C         139.9092  138.1978  162.5477 C.ar    1  UNL1        0.0394
     18 C         140.7602  137.2539  163.3443 C.ar    1  UNL1        0.1216
     19 N         140.3117  137.3196  164.7742 N.ar    1  UNL1       -0.1673
     20 N         139.1834  138.3042  164.8612 N.ar    1  UNL1       -0.2448
     21 C         139.8957  138.5501  161.0897 C.ar    1  UNL1        0.0177
     22 C         138.4353  138.6801  166.1058 C.3     1  UNL1        0.1727
     23 C         139.0316  139.6601  167.0721 C.ar    1  UNL1        0.0836
     24 C         139.8885  140.7835  166.5683 C.ar    1  UNL1        0.0168
     25 C         140.4848  141.7635  167.5347 C.ar    1  UNL1        0.0029
     26 C         140.2243  141.6203  169.0049 C.ar    1  UNL1        0.0207
     27 C         139.3673  140.4970  169.5087 C.ar    1  UNL1        0.0985
     28 N         138.7710  139.5169  168.5423 N.ar    1  UNL1       -0.2462
     29 O         140.5374  141.8965  159.3929 O.3     1  UNL1       -0.4698
     30 C         141.6395  141.7444  161.7407 C.3     1  UNL1        0.0574
     31 C         141.0431  142.5658  160.6364 C.3     1  UNL1        0.2413
     32 C         140.9523  144.0567  160.7756 C.2     1  UNL1        0.2660
     33 O         141.9791  144.9347  160.1238 O.2     1  UNL1       -0.2710
     34 N         139.8347  144.6694  161.5665 N.am    1  UNL1       -0.2731
     35 C         139.7440  146.1602  161.7058 C.3     1  UNL1        0.1150
     36 C         138.8080  143.7914  162.2183 C.3     1  UNL1        0.1150
@<TRIPOS>BOND
     1    31    30    1
     2    31    29    1
     3    29     1    1
     4     1     2   ar
     5     2     3   ar
     6     3     4   ar
     7     4     5   ar
     8     5     6   ar
     9     6     7   ar
    10     7     8   ar
    11     8     9   ar
    12     9    11    1
    13    11    13    1
    14    13    14   ar
    15    14    15   ar
    16    15    16   ar
    17    16    17   ar
    18    17    18   ar
    19    18    19   ar
    20    19    20   ar
    21    20    22    1
    22    22    23    1
    23    23    24   ar
    24    24    25   ar
    25    25    26   ar
    26    26    27   ar
    27    27    28   ar
    28    17    21   ar
    29     9    10   ar
    30    31    32    1
    31    32    33    2
    32    32    34   am
    33    34    35    1
    34    34    36    1
    35    10     1   ar
    36    10     5   ar
    37    21    13   ar
    38    20    16   ar
    39    28    23   ar
    40    11    12    1
@<TRIPOS>MOLECULE
*****
 36 40 0 0 0
SMALL
GASTEIGER

@<TRIPOS>ATOM
      1 C         141.6384  141.8430  166.5037 C.ar    1  UNL1        0.1432
      2 C         140.9927  142.2853  167.7833 C.ar    1  UNL1        0.0371
      3 C         141.1374  141.4534  169.0230 C.ar    1  UNL1        0.0047
      4 C         141.9277  140.1792  168.9832 C.ar    1  UNL1        0.0195
      5 C         142.5734  139.7368  167.7036 C.ar    1  UNL1        0.0887
      6 N         143.3638  138.4625  167.6637 N.ar    1  UNL1       -0.2238
      7 C         144.0094  138.0202  166.3841 C.ar    1  UNL1        0.2000
      8 N         143.8648  138.8522  165.1443 N.ar    1  UNL1       -0.2088
      9 C         143.0744  140.1264  165.1842 C.ar    1  UNL1        0.1383
     10 C         142.4287  140.5688  166.4638 C.ar    1  UNL1        0.0833
     11 N         142.9297  140.9583  163.9444 N.pl3   1  UNL1       -0.2978
     12 H         142.9525  141.9407  164.0054 H       1  UNL1        0.1536
     13 C         142.7504  140.2936  162.6118 C.ar    1  UNL1        0.0495
     14 C         143.9473  139.9733  161.7663 C.ar    1  UNL1        0.0162
     15 C         143.7679  139.3085  160.4337 C.ar    1  UNL1        0.0201
     16 C         142.3916  138.9640  159.9466 C.ar    1  UNL1        0.0799
     17 C         141.1948  139.2843  160.7920 C.ar    1  UNL1        0.0394
     18 C         139.9707  138.8291  160.0542 C.ar    1  UNL1        0.1216
     19 N         140.4111  138.2274  158.7526 N.ar    1  UNL1       -0.1673
     20 N         141.9073  138.3108  158.6861 N.ar    1  UNL1       -0.2448
     21 C         141.3741  139.9491  162.1247 C.ar    1  UNL1        0.0177
     22 C         142.7681  137.8262  157.5573 C.3     1  UNL1        0.1727
     23 C         142.4925  136.4957  156.9218 C.ar    1  UNL1        0.0836
     24 C         141.4638  136.3818  155.8361 C.ar    1  UNL1        0.0168
     25 C         141.1882  135.0513  155.2006 C.ar    1  UNL1        0.0029
     26 C         141.9413  133.8347  155.6507 C.ar    1  UNL1        0.0207
     27 C         142.9700  133.9486  156.7364 C.ar    1  UNL1        0.0985
     28 N         143.2456  135.2791  157.3719 N.ar    1  UNL1       -0.2462
     29 O         141.4937  142.6749  165.2639 O.3     1  UNL1       -0.4698
     30 C         139.1849  141.7076  164.5687 C.3     1  UNL1        0.0574
     31 C         140.1432  142.8595  164.6379 C.3     1  UNL1        0.2413
     32 C         139.7509  144.1959  164.0810 C.2     1  UNL1        0.2660
     33 O         138.9200  145.1363  164.9029 O.2     1  UNL1       -0.2710
     34 N         140.1894  144.5920  162.7024 N.am    1  UNL1       -0.2731
     35 C         139.7971  145.9284  162.1455 C.3     1  UNL1        0.1150
     36 C         141.0202  143.6516  161.8805 C.3     1  UNL1        0.1150
@<TRIPOS>BOND
     1    31    30    1
     2    31    29    1
     3    29     1    1
     4     1     2   ar
     5     2     3   ar
     6     3     4   ar
     7     4     5   ar
     8     5     6   ar
     9     6     7   ar
    10     7     8   ar
    11     8     9   ar
    12     9    11    1
    13    11    13    1
    14    13    14   ar
    15    14    15   ar
    16    15    16   ar
    17    16    17   ar
    18    17    18   ar
    19    18    19   ar
    20    19    20   ar
    21    20    22    1
    22    22    23    1
    23    23    24   ar
    24    24    25   ar
    25    25    26   ar
    26    26    27   ar
    27    27    28   ar
    28    17    21   ar
    29     9    10   ar
    30    31    32    1
    31    32    33    2
    32    32    34   am
    33    34    35    1
    34    34    36    1
    35    10     1   ar
    36    10     5   ar
    37    21    13   ar
    38    20    16   ar
    39    28    23   ar
    40    11    12    1
@<TRIPOS>MOLECULE
*****
 36 40 0 0 0
SMALL
GASTEIGER

@<TRIPOS>ATOM
      1 C         139.5608  143.6552  159.5931 C.ar    1  UNL1        0.1432
      2 C         140.3061  144.7464  158.8833 C.ar    1  UNL1        0.0371
      3 C         140.9183  144.4849  157.5391 C.ar    1  UNL1        0.0047
      4 C         140.7851  143.1323  156.9046 C.ar    1  UNL1        0.0195
      5 C         140.0398  142.0411  157.6144 C.ar    1  UNL1        0.0887
      6 N         139.9067  140.6883  156.9800 N.ar    1  UNL1       -0.2238
      7 C         139.1614  139.5972  157.6897 C.ar    1  UNL1        0.2000
      8 N         138.5492  139.8586  159.0339 N.ar    1  UNL1       -0.2088
      9 C         138.6824  141.2113  159.6684 C.ar    1  UNL1        0.1383
     10 C         139.4277  142.3025  158.9586 C.ar    1  UNL1        0.0833
     11 N         138.0702  141.4727  161.0126 N.pl3   1  UNL1       -0.2978
     12 H         137.2255  141.9738  161.0797 H       1  UNL1        0.1536
     13 C         138.7452  140.9708  162.2545 C.ar    1  UNL1        0.0495
     14 C         140.2428  140.9402  162.3341 C.ar    1  UNL1        0.0162
     15 C         140.9178  140.4382  163.5761 C.ar    1  UNL1        0.0201
     16 C         140.0952  139.9668  164.7384 C.ar    1  UNL1        0.0799
     17 C         138.5976  139.9973  164.6589 C.ar    1  UNL1        0.0394
     18 C         138.0538  139.4723  165.9544 C.ar    1  UNL1        0.1216
     19 N         139.2152  139.1173  166.8347 N.ar    1  UNL1       -0.1673
     20 N         140.4769  139.4229  166.0832 N.ar    1  UNL1       -0.2448
     21 C         137.9226  140.4993  163.4169 C.ar    1  UNL1        0.0177
     22 C         141.8748  139.2202  166.5878 C.3     1  UNL1        0.1727
     23 C         142.4114  140.0946  167.6821 C.ar    1  UNL1        0.0836
     24 C         142.7432  141.5301  167.4004 C.ar    1  UNL1        0.0168
     25 C         143.2798  142.4045  168.4946 C.ar    1  UNL1        0.0029
     26 C         143.4844  141.8436  169.8706 C.ar    1  UNL1        0.0207
     27 C         143.1526  140.4082  170.1524 C.ar    1  UNL1        0.0985
     28 N         142.6160  139.5337  169.0581 N.ar    1  UNL1       -0.2462
     29 O         138.9487  143.9166  160.9373 O.3     1  UNL1       -0.4698
     30 C         139.6766  146.3161  161.6175 C.3     1  UNL1        0.0574
     31 C         139.6258  144.8442  161.9021 C.3     1  UNL1        0.2413
     32 C         140.2523  144.3000  163.1517 C.2     1  UNL1        0.2660
     33 O         141.7362  144.0903  163.2168 O.2     1  UNL1       -0.2710
     34 N         139.3949  143.9653  164.3361 N.am    1  UNL1       -0.2731
     35 C         140.0214  143.4211  165.5857 C.3     1  UNL1        0.1150
     36 C         137.9111  144.1750  164.2711 C.3     1  UNL1        0.1150
@<TRIPOS>BOND
     1    31    30    1
     2    31    29    1
     3    29     1    1
     4     1     2   ar
     5     2     3   ar
     6     3     4   ar
     7     4     5   ar
     8     5     6   ar
     9     6     7   ar
    10     7     8   ar
    11     8     9   ar
    12     9    11    1
    13    11    13    1
    14    13    14   ar
    15    14    15   ar
    16    15    16   ar
    17    16    17   ar
    18    17    18   ar
    19    18    19   ar
    20    19    20   ar
    21    20    22    1
    22    22    23    1
    23    23    24   ar
    24    24    25   ar
    25    25    26   ar
    26    26    27   ar
    27    27    28   ar
    28    17    21   ar
    29     9    10   ar
    30    31    32    1
    31    32    33    2
    32    32    34   am
    33    34    35    1
    34    34    36    1
    35    10     1   ar
    36    10     5   ar
    37    21    13   ar
    38    20    16   ar
    39    28    23   ar
    40    11    12    1
@<TRIPOS>MOLECULE
*****
 36 40 0 0 0
SMALL
GASTEIGER

@<TRIPOS>ATOM
      1 C         140.2183  142.2107  166.0426 C.ar    1  UNL1        0.1432
      2 C         141.0847  142.8073  167.1119 C.ar    1  UNL1        0.0371
      3 C         141.1460  142.1715  168.4691 C.ar    1  UNL1        0.0047
      4 C         140.3409  140.9391  168.7571 C.ar    1  UNL1        0.0195
      5 C         139.4744  140.3426  167.6878 C.ar    1  UNL1        0.0887
      6 N         138.6692  139.1101  167.9758 N.ar    1  UNL1       -0.2238
      7 C         137.8028  138.5135  166.9065 C.ar    1  UNL1        0.2000
      8 N         137.7415  139.1493  165.5493 N.ar    1  UNL1       -0.2088
      9 C         138.5467  140.3817  165.2613 C.ar    1  UNL1        0.1383
     10 C         139.4131  140.9783  166.3306 C.ar    1  UNL1        0.0833
     11 N         138.4854  141.0174  163.9041 N.pl3   1  UNL1       -0.2978
     12 H         137.9967  141.8628  163.7782 H       1  UNL1        0.1536
     13 C         139.1686  140.3653  162.7389 C.ar    1  UNL1        0.0495
     14 C         138.5617  140.4508  161.3697 C.ar    1  UNL1        0.0162
     15 C         139.2449  139.7986  160.2045 C.ar    1  UNL1        0.0201
     16 C         140.5350  139.0609  160.4083 C.ar    1  UNL1        0.0799
     17 C         141.1418  138.9753  161.7773 C.ar    1  UNL1        0.0394
     18 C         142.4128  138.1857  161.6725 C.ar    1  UNL1        0.1216
     19 N         142.5915  137.7832  160.2386 N.ar    1  UNL1       -0.1673
     20 N         141.4309  138.3241  159.4573 N.ar    1  UNL1       -0.2448
     21 C         140.4586  139.6275  162.9427 C.ar    1  UNL1        0.0177
     22 C         141.2058  138.1576  157.9837 C.3     1  UNL1        0.1727
     23 C         142.3768  138.0972  157.0482 C.ar    1  UNL1        0.0836
     24 C         142.8881  136.7701  156.5712 C.ar    1  UNL1        0.0168
     25 C         144.0591  136.7098  155.6357 C.ar    1  UNL1        0.0029
     26 C         144.7189  137.9764  155.1772 C.ar    1  UNL1        0.0207
     27 C         144.2076  139.3035  155.6542 C.ar    1  UNL1        0.0985
     28 N         143.0366  139.3638  156.5897 N.ar    1  UNL1       -0.2462
     29 O         140.1570  142.8464  164.6854 O.3     1  UNL1       -0.4698
     30 C         138.7293  144.7902  165.6517 C.3     1  UNL1        0.0574
     31 C         139.3499  144.0935  164.4771 C.3     1  UNL1        0.2413
     32 C         139.1635  144.6440  163.0943 C.2     1  UNL1        0.2660
     33 O         137.8274  144.5416  162.4201 O.2     1  UNL1       -0.2710
     34 N         140.3130  145.2968  162.3856 N.am    1  UNL1       -0.2731
     35 C         140.1265  145.8473  161.0027 C.3     1  UNL1        0.1150
     36 C         141.6491  145.3992  163.0597 C.3     1  UNL1        0.1150
@<TRIPOS>BOND
     1    31    30    1
     2    31    29    1
     3    29     1    1
     4     1     2   ar
     5     2     3   ar
     6     3     4   ar
     7     4     5   ar
     8     5     6   ar
     9     6     7   ar
    10     7     8   ar
    11     8     9   ar
    12     9    11    1
    13    11    13    1
    14    13    14   ar
    15    14    15   ar
    16    15    16   ar
    17    16    17   ar
    18    17    18   ar
    19    18    19   ar
    20    19    20   ar
    21    20    22    1
    22    22    23    1
    23    23    24   ar
    24    24    25   ar
    25    25    26   ar
    26    26    27   ar
    27    27    28   ar
    28    17    21   ar
    29     9    10   ar
    30    31    32    1
    31    32    33    2
    32    32    34   am
    33    34    35    1
    34    34    36    1
    35    10     1   ar
    36    10     5   ar
    37    21    13   ar
    38    20    16   ar
    39    28    23   ar
    40    11    12    1
@<TRIPOS>MOLECULE
*****
 36 40 0 0 0
SMALL
GASTEIGER

@<TRIPOS>ATOM
      1 C         142.4061  140.8484  166.2970 C.ar    1  UNL1        0.1432
      2 C         142.3662  141.9070  167.3590 C.ar    1  UNL1        0.0371
      3 C         141.1474  142.0602  168.2198 C.ar    1  UNL1        0.0047
      4 C         139.9685  141.1550  168.0187 C.ar    1  UNL1        0.0195
      5 C         140.0083  140.0965  166.9567 C.ar    1  UNL1        0.0887
      6 N         138.8293  139.1911  166.7554 N.ar    1  UNL1       -0.2238
      7 C         138.8691  138.1326  165.6934 C.ar    1  UNL1        0.2000
      8 N         140.0879  137.9794  164.8326 N.ar    1  UNL1       -0.2088
      9 C         141.2669  138.8846  165.0338 C.ar    1  UNL1        0.1383
     10 C         141.2271  139.9432  166.0958 C.ar    1  UNL1        0.0833
     11 N         142.4857  138.7313  164.1729 N.pl3   1  UNL1       -0.2978
     12 H         143.3822  138.7666  164.5782 H       1  UNL1        0.1536
     13 C         142.3386  138.5244  162.6946 C.ar    1  UNL1        0.0495
     14 C         143.4948  138.0073  161.8909 C.ar    1  UNL1        0.0162
     15 C         143.3477  137.8004  160.4126 C.ar    1  UNL1        0.0201
     16 C         142.0444  138.1105  159.7379 C.ar    1  UNL1        0.0799
     17 C         140.8882  138.6276  160.5415 C.ar    1  UNL1        0.0394
     18 C         139.7345  138.8440  159.6077 C.ar    1  UNL1        0.1216
     19 N         140.1777  138.4607  158.2268 N.ar    1  UNL1       -0.1673
     20 N         141.6052  138.0074  158.3073 N.ar    1  UNL1       -0.2448
     21 C         141.0353  138.8345  162.0199 C.ar    1  UNL1        0.0177
     22 C         142.4461  137.5340  157.1589 C.3     1  UNL1        0.1727
     23 C         142.4946  136.0745  156.8164 C.ar    1  UNL1        0.0836
     24 C         141.6873  135.5465  155.6677 C.ar    1  UNL1        0.0168
     25 C         141.7358  134.0869  155.3252 C.ar    1  UNL1        0.0029
     26 C         142.5914  133.1553  156.1313 C.ar    1  UNL1        0.0207
     27 C         143.3986  133.6833  157.2801 C.ar    1  UNL1        0.0985
     28 N         143.3502  135.1429  157.6226 N.ar    1  UNL1       -0.2462
     29 O         143.6249  140.6952  165.4362 O.3     1  UNL1       -0.4698
     30 C         144.4756  143.1465  165.3062 C.3     1  UNL1        0.0574
     31 C         144.1228  141.8563  164.6275 C.3     1  UNL1        0.2413
     32 C         144.2679  141.7271  163.1401 C.2     1  UNL1        0.2660
     33 O         145.6004  141.3825  162.5437 O.2     1  UNL1       -0.2710
     34 N         143.0805  141.9425  162.2492 N.am    1  UNL1       -0.2731
     35 C         143.2256  141.8133  160.7618 C.3     1  UNL1        0.1150
     36 C         141.7480  142.2870  162.8457 C.3     1  UNL1        0.1150
@<TRIPOS>BOND
     1    31    30    1
     2    31    29    1
     3    29     1    1
     4     1     2   ar
     5     2     3   ar
     6     3     4   ar
     7     4     5   ar
     8     5     6   ar
     9     6     7   ar
    10     7     8   ar
    11     8     9   ar
    12     9    11    1
    13    11    13    1
    14    13    14   ar
    15    14    15   ar
    16    15    16   ar
    17    16    17   ar
    18    17    18   ar
    19    18    19   ar
    20    19    20   ar
    21    20    22    1
    22    22    23    1
    23    23    24   ar
    24    24    25   ar
    25    25    26   ar
    26    26    27   ar
    27    27    28   ar
    28    17    21   ar
    29     9    10   ar
    30    31    32    1
    31    32    33    2
    32    32    34   am
    33    34    35    1
    34    34    36    1
    35    10     1   ar
    36    10     5   ar
    37    21    13   ar
    38    20    16   ar
    39    28    23   ar
    40    11    12    1
@<TRIPOS>MOLECULE
*****
 36 40 0 0 0
SMALL
GASTEIGER

@<TRIPOS>ATOM
      1 C         142.2959  139.1904  162.8788 C.ar    1  UNL1        0.1432
      2 C         142.7520  138.6544  164.2034 C.ar    1  UNL1        0.0371
      3 C         144.0220  139.1609  164.8203 C.ar    1  UNL1        0.0047
      4 C         144.8358  140.2034  164.1126 C.ar    1  UNL1        0.0195
      5 C         144.3797  140.7394  162.7880 C.ar    1  UNL1        0.0887
      6 N         145.1936  141.7819  162.0803 N.ar    1  UNL1       -0.2238
      7 C         144.7374  142.3179  160.7557 C.ar    1  UNL1        0.2000
      8 N         143.4674  141.8114  160.1388 N.ar    1  UNL1       -0.2088
      9 C         142.6536  140.7689  160.8464 C.ar    1  UNL1        0.1383
     10 C         143.1097  140.2329  162.1711 C.ar    1  UNL1        0.0833
     11 N         141.3836  140.2624  160.2295 N.pl3   1  UNL1       -0.2978
     12 H         140.5138  140.5878  160.5562 H       1  UNL1        0.1536
     13 C         141.4390  139.2601  159.1149 C.ar    1  UNL1        0.0495
     14 C         142.7203  138.5390  158.8176 C.ar    1  UNL1        0.0162
     15 C         142.7756  137.5367  157.7030 C.ar    1  UNL1        0.0201
     16 C         141.5497  137.2555  156.8857 C.ar    1  UNL1        0.0799
     17 C         140.2684  137.9765  157.1830 C.ar    1  UNL1        0.0394
     18 C         139.2297  137.4946  156.2141 C.ar    1  UNL1        0.1216
     19 N         139.8690  136.4757  155.3180 N.ar    1  UNL1       -0.1673
     20 N         141.3028  136.3279  155.7330 N.ar    1  UNL1       -0.2448
     21 C         140.2130  138.9789  158.2976 C.ar    1  UNL1        0.0177
     22 C         142.3126  135.4132  155.1057 C.3     1  UNL1        0.1727
     23 C         142.7565  134.1767  155.8297 C.ar    1  UNL1        0.0836
     24 C         142.0826  132.8648  155.5562 C.ar    1  UNL1        0.0168
     25 C         142.5265  131.6284  156.2802 C.ar    1  UNL1        0.0029
     26 C         143.6442  131.7038  157.2777 C.ar    1  UNL1        0.0207
     27 C         144.3180  133.0157  157.5512 C.ar    1  UNL1        0.0985
     28 N         143.8741  134.2522  156.8272 N.ar    1  UNL1       -0.2462
     29 O         141.0259  138.6839  162.2619 O.3     1  UNL1       -0.4698
     30 C         138.9898  137.5687  163.4283 C.3     1  UNL1        0.0574
     31 C         139.7300  138.8036  163.0077 C.3     1  UNL1        0.2413
     32 C         139.1742  140.1585  163.3328 C.2     1  UNL1        0.2660
     33 O         139.5848  140.8539  164.5969 O.2     1  UNL1       -0.2710
     34 N         138.2079  140.8178  162.3939 N.am    1  UNL1       -0.2731
     35 C         137.6521  142.1726  162.7191 C.3     1  UNL1        0.1150
     36 C         137.7974  140.1224  161.1299 C.3     1  UNL1        0.1150
@<TRIPOS>BOND
     1    31    30    1
     2    31    29    1
     3    29     1    1
     4     1     2   ar
     5     2     3   ar
     6     3     4   ar
     7     4     5   ar
     8     5     6   ar
     9     6     7   ar
    10     7     8   ar
    11     8     9   ar
    12     9    11    1
    13    11    13    1
    14    13    14   ar
    15    14    15   ar
    16    15    16   ar
    17    16    17   ar
    18    17    18   ar
    19    18    19   ar
    20    19    20   ar
    21    20    22    1
    22    22    23    1
    23    23    24   ar
    24    24    25   ar
    25    25    26   ar
    26    26    27   ar
    27    27    28   ar
    28    17    21   ar
    29     9    10   ar
    30    31    32    1
    31    32    33    2
    32    32    34   am
    33    34    35    1
    34    34    36    1
    35    10     1   ar
    36    10     5   ar
    37    21    13   ar
    38    20    16   ar
    39    28    23   ar
    40    11    12    1
@<TRIPOS>MOLECULE
*****
 36 40 0 0 0
SMALL
GASTEIGER

@<TRIPOS>ATOM
      1 C         139.4372  143.1705  156.6215 C.ar    1  UNL1        0.1432
      2 C         139.6060  144.5855  156.1533 C.ar    1  UNL1        0.0371
      3 C         138.5100  145.2548  155.3781 C.ar    1  UNL1        0.0047
      4 C         137.2452  144.5091  155.0712 C.ar    1  UNL1        0.0195
      5 C         137.0764  143.0941  155.5394 C.ar    1  UNL1        0.0887
      6 N         135.8116  142.3484  155.2325 N.ar    1  UNL1       -0.2238
      7 C         135.6428  140.9334  155.7007 C.ar    1  UNL1        0.2000
      8 N         136.7388  140.2641  156.4759 N.ar    1  UNL1       -0.2088
      9 C         138.0036  141.0098  156.7828 C.ar    1  UNL1        0.1383
     10 C         138.1724  142.4248  156.3146 C.ar    1  UNL1        0.0833
     11 N         139.0995  140.3405  157.5580 N.pl3   1  UNL1       -0.2978
     12 H         139.9004  140.0083  157.0915 H       1  UNL1        0.1536
     13 C         138.9754  140.1772  159.0438 C.ar    1  UNL1        0.0495
     14 C         138.2028  141.1815  159.8468 C.ar    1  UNL1        0.0162
     15 C         138.0787  141.0182  161.3327 C.ar    1  UNL1        0.0201
     16 C         138.7271  139.8507  162.0157 C.ar    1  UNL1        0.0799
     17 C         139.4996  138.8465  161.2128 C.ar    1  UNL1        0.0394
     18 C         140.0262  137.8054  162.1556 C.ar    1  UNL1        0.1216
     19 N         139.5791  138.1663  163.5412 N.ar    1  UNL1       -0.1673
     20 N         138.7762  139.4303  163.4547 N.ar    1  UNL1       -0.2448
     21 C         139.6238  139.0097  159.7269 C.ar    1  UNL1        0.0177
     22 C         138.1350  140.1480  164.6052 C.3     1  UNL1        0.1727
     23 C         138.4719  141.5847  164.8746 C.ar    1  UNL1        0.0836
     24 C         137.5703  142.6733  164.3727 C.ar    1  UNL1        0.0168
     25 C         137.9072  144.1099  164.6421 C.ar    1  UNL1        0.0029
     26 C         139.1457  144.4580  165.4134 C.ar    1  UNL1        0.0207
     27 C         140.0474  143.3693  165.9153 C.ar    1  UNL1        0.0985
     28 N         139.7104  141.9327  165.6459 N.ar    1  UNL1       -0.2462
     29 O         140.5332  142.5012  157.3967 O.3     1  UNL1       -0.4698
     30 C         142.8015  143.6926  157.8267 C.3     1  UNL1        0.0574
     31 C         141.4254  143.3135  158.2877 C.3     1  UNL1        0.2413
     32 C         140.9416  143.7466  159.6399 C.2     1  UNL1        0.2660
     33 O         140.1504  145.0129  159.7832 O.2     1  UNL1       -0.2710
     34 N         141.2489  142.9135  160.8488 N.am    1  UNL1       -0.2731
     35 C         140.7651  143.3466  162.2010 C.3     1  UNL1        0.1150
     36 C         142.0401  141.6471  160.7055 C.3     1  UNL1        0.1150
@<TRIPOS>BOND
     1    31    30    1
     2    31    29    1
     3    29     1    1
     4     1     2   ar
     5     2     3   ar
     6     3     4   ar
     7     4     5   ar
     8     5     6   ar
     9     6     7   ar
    10     7     8   ar
    11     8     9   ar
    12     9    11    1
    13    11    13    1
    14    13    14   ar
    15    14    15   ar
    16    15    16   ar
    17    16    17   ar
    18    17    18   ar
    19    18    19   ar
    20    19    20   ar
    21    20    22    1
    22    22    23    1
    23    23    24   ar
    24    24    25   ar
    25    25    26   ar
    26    26    27   ar
    27    27    28   ar
    28    17    21   ar
    29     9    10   ar
    30    31    32    1
    31    32    33    2
    32    32    34   am
    33    34    35    1
    34    34    36    1
    35    10     1   ar
    36    10     5   ar
    37    21    13   ar
    38    20    16   ar
    39    28    23   ar
    40    11    12    1
