@<TRIPOS>MOLECULE
*****
 26 28 0 0 0
SMALL
GASTEIGER

@<TRIPOS>ATOM
      1 C         142.5257  140.0978  165.4387 C.ar    1  UNL1        0.0726
      2 C         142.6478  139.1138  166.5643 C.ar    1  UNL1        0.0235
      3 C         142.5671  139.8737  167.8551 C.ar    1  UNL1        0.0643
      4 C         142.6280  139.4298  169.2866 C.ar    1  UNL1        0.0176
      5 C         142.5168  140.4395  170.3903 C.ar    1  UNL1        0.0030
      6 C         142.3448  141.8931  170.0624 C.ar    1  UNL1        0.0190
      7 C         142.2839  142.3370  168.6309 C.ar    1  UNL1        0.0801
      8 N         142.3950  141.3273  167.5273 N.ar    1  UNL1       -0.3034
      9 C         142.3694  141.4657  166.0339 C.ar    1  UNL1        0.0862
     10 C         142.2147  142.7473  165.2698 C.ar    1  UNL1        0.1006
     11 C         143.4296  143.5051  164.8226 C.ar    1  UNL1        0.0208
     12 C         143.2749  144.7867  164.0585 C.ar    1  UNL1        0.0064
     13 C         141.9055  145.3103  163.7417 C.ar    1  UNL1        0.0577
     14 C         140.6907  144.5525  164.1889 C.ar    1  UNL1        0.2250
     15 N         140.8454  143.2710  164.9530 N.ar    1  UNL1       -0.2102
     16 O         139.3213  145.0761  163.8720 O.3     1  UNL1       -0.4561
     17 C         138.1119  144.2376  164.1625 C.3     1  UNL1        0.2542
     18 N         143.8626  139.7276  163.2421 N.am    1  UNL1       -0.2735
     19 C         142.5547  139.7711  163.9750 C.2     1  UNL1        0.2506
     20 O         141.2757  139.4879  163.2443 O.2     1  UNL1       -0.2699
     21 C         143.9145  137.9697  161.3296 C.3     1  UNL1        0.0233
     22 C         143.8917  139.4009  161.7784 C.3     1  UNL1        0.0939
     23 C         145.1417  140.0107  163.9728 C.3     1  UNL1        0.1254
     24 C         145.7824  141.3628  163.8670 C.3     1  UNL1        0.1586
     25 O         145.9988  141.9869  162.5202 O.3     1  UNL1       -0.3802
     26 H         146.6436  141.4622  162.0205 H       1  UNL1        0.2105
@<TRIPOS>BOND
     1    21    22    1
     2    22    18    1
     3    18    23    1
     4    23    24    1
     5    24    25    1
     6    18    19   am
     7    19    20    2
     8    19     1    1
     9     1     2   ar
    10     2     3   ar
    11     3     4   ar
    12     4     5   ar
    13     5     6   ar
    14     6     7   ar
    15     7     8   ar
    16     8     9   ar
    17     9    10    1
    18    10    11   ar
    19    11    12   ar
    20    12    13   ar
    21    13    14   ar
    22    14    16    1
    23    16    17    1
    24    14    15   ar
    25     9     1   ar
    26    15    10   ar
    27     8     3   ar
    28    25    26    1
@<TRIPOS>MOLECULE
*****
 26 28 0 0 0
SMALL
GASTEIGER

@<TRIPOS>ATOM
      1 C         140.2108  139.4804  165.9609 C.ar    1  UNL1        0.0726
      2 C         139.2187  139.5531  167.0836 C.ar    1  UNL1        0.0235
      3 C         139.8581  140.2944  168.2201 C.ar    1  UNL1        0.0643
      4 C         139.3563  140.6682  169.5833 C.ar    1  UNL1        0.0176
      5 C         140.2419  141.4274  170.5262 C.ar    1  UNL1        0.0030
      6 C         141.6293  141.8130  170.1059 C.ar    1  UNL1        0.0190
      7 C         142.1310  141.4392  168.7427 C.ar    1  UNL1        0.0801
      8 N         141.2455  140.6799  167.7998 N.ar    1  UNL1       -0.3034
      9 C         141.4634  140.1768  166.4035 C.ar    1  UNL1        0.0862
     10 C         142.7144  140.3414  165.5924 C.ar    1  UNL1        0.1006
     11 C         143.6142  139.1649  165.3545 C.ar    1  UNL1        0.0208
     12 C         144.8652  139.3294  164.5434 C.ar    1  UNL1        0.0064
     13 C         145.2164  140.6703  163.9700 C.ar    1  UNL1        0.0577
     14 C         144.3167  141.8466  164.2079 C.ar    1  UNL1        0.2250
     15 N         143.0657  141.6821  165.0191 N.ar    1  UNL1       -0.2102
     16 O         144.6679  143.1875  163.6346 O.3     1  UNL1       -0.4561
     17 C         144.4479  143.4606  162.1761 C.3     1  UNL1        0.2542
     18 N         139.4817  139.6342  163.4720 N.am    1  UNL1       -0.2735
     19 C         139.9892  138.8262  164.6294 C.2     1  UNL1        0.2506
     20 O         140.2752  137.3641  164.4553 O.2     1  UNL1       -0.2699
     21 C         137.9857  138.2352  161.8736 C.3     1  UNL1        0.0233
     22 C         139.2601  138.9800  162.1405 C.3     1  UNL1        0.0939
     23 C         139.1957  141.0964  163.6461 C.3     1  UNL1        0.1254
     24 C         137.8173  141.5512  164.0244 C.3     1  UNL1        0.1586
     25 O         136.6655  141.3070  163.0950 O.3     1  UNL1       -0.3802
     26 H         136.7898  141.8235  162.2834 H       1  UNL1        0.2105
@<TRIPOS>BOND
     1    21    22    1
     2    22    18    1
     3    18    23    1
     4    23    24    1
     5    24    25    1
     6    18    19   am
     7    19    20    2
     8    19     1    1
     9     1     2   ar
    10     2     3   ar
    11     3     4   ar
    12     4     5   ar
    13     5     6   ar
    14     6     7   ar
    15     7     8   ar
    16     8     9   ar
    17     9    10    1
    18    10    11   ar
    19    11    12   ar
    20    12    13   ar
    21    13    14   ar
    22    14    16    1
    23    16    17    1
    24    14    15   ar
    25     9     1   ar
    26    15    10   ar
    27     8     3   ar
    28    25    26    1
@<TRIPOS>MOLECULE
*****
 26 28 0 0 0
SMALL
GASTEIGER

@<TRIPOS>ATOM
      1 C         141.1929  140.4161  165.7850 C.ar    1  UNL1        0.0726
      2 C         142.5363  139.7517  165.8457 C.ar    1  UNL1        0.0235
      3 C         143.4521  140.4703  164.8996 C.ar    1  UNL1        0.0643
      4 C         144.8934  140.2584  164.5424 C.ar    1  UNL1        0.0176
      5 C         145.5572  141.1550  163.5398 C.ar    1  UNL1        0.0030
      6 C         144.7797  142.2636  162.8944 C.ar    1  UNL1        0.0190
      7 C         143.3384  142.4755  163.2516 C.ar    1  UNL1        0.0801
      8 N         142.6746  141.5788  164.2542 N.ar    1  UNL1       -0.3034
      9 C         141.2783  141.5453  164.8014 C.ar    1  UNL1        0.0862
     10 C         140.1633  142.4775  164.4302 C.ar    1  UNL1        0.1006
     11 C         139.7182  143.5363  165.3951 C.ar    1  UNL1        0.0208
     12 C         138.6031  144.4684  165.0239 C.ar    1  UNL1        0.0064
     13 C         137.9332  144.3419  163.6878 C.ar    1  UNL1        0.0577
     14 C         138.3783  143.2832  162.7229 C.ar    1  UNL1        0.2250
     15 N         139.4934  142.3510  163.0942 N.ar    1  UNL1       -0.2102
     16 O         137.7084  143.1566  161.3868 O.3     1  UNL1       -0.4561
     17 C         138.3832  142.4054  160.2776 C.3     1  UNL1        0.2542
     18 N         139.0226  139.0064  166.0141 N.am    1  UNL1       -0.2735
     19 C         139.9775  140.0208  166.5702 C.2     1  UNL1        0.2506
     20 O         139.7169  140.6398  167.9113 O.2     1  UNL1       -0.2699
     21 C         137.4211  137.1655  166.9064 C.3     1  UNL1        0.0233
     22 C         137.8072  138.6110  166.7992 C.3     1  UNL1        0.0939
     23 C         139.2832  138.3873  164.6728 C.3     1  UNL1        0.1254
     24 C         138.5841  138.9144  163.4549 C.3     1  UNL1        0.1586
     25 O         139.3807  139.5061  162.3300 O.3     1  UNL1       -0.3802
     26 H         139.8137  140.3193  162.6332 H       1  UNL1        0.2105
@<TRIPOS>BOND
     1    21    22    1
     2    22    18    1
     3    18    23    1
     4    23    24    1
     5    24    25    1
     6    18    19   am
     7    19    20    2
     8    19     1    1
     9     1     2   ar
    10     2     3   ar
    11     3     4   ar
    12     4     5   ar
    13     5     6   ar
    14     6     7   ar
    15     7     8   ar
    16     8     9   ar
    17     9    10    1
    18    10    11   ar
    19    11    12   ar
    20    12    13   ar
    21    13    14   ar
    22    14    16    1
    23    16    17    1
    24    14    15   ar
    25     9     1   ar
    26    15    10   ar
    27     8     3   ar
    28    25    26    1
@<TRIPOS>MOLECULE
*****
 26 28 0 0 0
SMALL
GASTEIGER

@<TRIPOS>ATOM
      1 C         140.7345  140.4063  165.7907 C.ar    1  UNL1        0.0726
      2 C         140.0194  139.7299  166.9226 C.ar    1  UNL1        0.0235
      3 C         139.9496  140.6943  168.0693 C.ar    1  UNL1        0.0643
      4 C         139.3610  140.5782  169.4440 C.ar    1  UNL1        0.0176
      5 C         139.4444  141.7346  170.3957 C.ar    1  UNL1        0.0030
      6 C         140.1165  143.0072  169.9726 C.ar    1  UNL1        0.0190
      7 C         140.7051  143.1233  168.5978 C.ar    1  UNL1        0.0801
      8 N         140.6217  141.9669  167.6462 N.ar    1  UNL1       -0.3034
      9 C         141.1067  141.7889  166.2380 C.ar    1  UNL1        0.0862
     10 C         141.8360  142.8135  165.4206 C.ar    1  UNL1        0.1006
     11 C         143.3307  142.9116  165.5008 C.ar    1  UNL1        0.0208
     12 C         144.0600  143.9363  164.6833 C.ar    1  UNL1        0.0064
     13 C         143.2947  144.8629  163.7857 C.ar    1  UNL1        0.0577
     14 C         141.8001  144.7647  163.7055 C.ar    1  UNL1        0.2250
     15 N         141.0708  143.7401  164.5229 N.ar    1  UNL1       -0.2102
     16 O         141.0347  145.6913  162.8079 O.3     1  UNL1       -0.4561
     17 C         139.5758  145.4534  162.5529 C.3     1  UNL1        0.2542
     18 N         139.9036  139.5158  163.4958 N.am    1  UNL1       -0.2735
     19 C         141.0262  139.8057  164.4475 C.2     1  UNL1        0.2506
     20 O         142.4404  139.4949  164.0561 O.2     1  UNL1       -0.2699
     21 C         139.1011  138.2416  161.3787 C.3     1  UNL1        0.0233
     22 C         140.1953  138.9152  162.1526 C.3     1  UNL1        0.0939
     23 C         138.4893  139.8266  163.8873 C.3     1  UNL1        0.1254
     24 C         137.9384  141.2056  163.6760 C.3     1  UNL1        0.1586
     25 O         136.5228  141.3849  163.2131 O.3     1  UNL1       -0.3802
     26 H         136.4297  141.0334  162.3139 H       1  UNL1        0.2105
@<TRIPOS>BOND
     1    21    22    1
     2    22    18    1
     3    18    23    1
     4    23    24    1
     5    24    25    1
     6    18    19   am
     7    19    20    2
     8    19     1    1
     9     1     2   ar
    10     2     3   ar
    11     3     4   ar
    12     4     5   ar
    13     5     6   ar
    14     6     7   ar
    15     7     8   ar
    16     8     9   ar
    17     9    10    1
    18    10    11   ar
    19    11    12   ar
    20    12    13   ar
    21    13    14   ar
    22    14    16    1
    23    16    17    1
    24    14    15   ar
    25     9     1   ar
    26    15    10   ar
    27     8     3   ar
    28    25    26    1
@<TRIPOS>MOLECULE
*****
 26 28 0 0 0
SMALL
GASTEIGER

@<TRIPOS>ATOM
      1 C         140.5202  141.1247  167.2282 C.ar    1  UNL1        0.0726
      2 C         139.6182  139.9272  167.2772 C.ar    1  UNL1        0.0235
      3 C         139.5749  139.3229  165.9050 C.ar    1  UNL1        0.0643
      4 C         138.8516  138.1288  165.3565 C.ar    1  UNL1        0.0176
      5 C         139.0034  137.7588  163.9108 C.ar    1  UNL1        0.0030
      6 C         139.8786  138.5829  163.0136 C.ar    1  UNL1        0.0190
      7 C         140.6019  139.7770  163.5621 C.ar    1  UNL1        0.0801
      8 N         140.4500  140.1470  165.0078 N.ar    1  UNL1       -0.3034
      9 C         141.0342  141.2606  165.8256 C.ar    1  UNL1        0.0862
     10 C         141.9685  142.3234  165.3281 C.ar    1  UNL1        0.1006
     11 C         143.4096  142.3101  165.7445 C.ar    1  UNL1        0.0208
     12 C         144.3439  143.3729  165.2470 C.ar    1  UNL1        0.0064
     13 C         143.8372  144.4490  164.3331 C.ar    1  UNL1        0.0577
     14 C         142.3962  144.4623  163.9167 C.ar    1  UNL1        0.2250
     15 N         141.4619  143.3995  164.4142 N.ar    1  UNL1       -0.2102
     16 O         141.8895  145.5384  163.0028 O.3     1  UNL1       -0.4561
     17 C         140.4535  145.5396  162.5693 C.3     1  UNL1        0.2542
     18 N         141.8814  141.6128  169.3866 N.am    1  UNL1       -0.2735
     19 C         140.8501  142.0278  168.3795 C.2     1  UNL1        0.2506
     20 O         140.1488  143.3458  168.5238 O.2     1  UNL1       -0.2699
     21 C         143.5476  143.1945  170.5998 C.3     1  UNL1        0.0233
     22 C         142.2113  142.5159  170.5379 C.3     1  UNL1        0.0939
     23 C         142.5828  140.2947  169.2423 C.3     1  UNL1        0.1254
     24 C         142.7583  139.4039  170.4363 C.3     1  UNL1        0.1586
     25 O         143.9018  139.6312  171.3801 O.3     1  UNL1       -0.3802
     26 H         144.7388  139.4557  170.9222 H       1  UNL1        0.2105
@<TRIPOS>BOND
     1    21    22    1
     2    22    18    1
     3    18    23    1
     4    23    24    1
     5    24    25    1
     6    18    19   am
     7    19    20    2
     8    19     1    1
     9     1     2   ar
    10     2     3   ar
    11     3     4   ar
    12     4     5   ar
    13     5     6   ar
    14     6     7   ar
    15     7     8   ar
    16     8     9   ar
    17     9    10    1
    18    10    11   ar
    19    11    12   ar
    20    12    13   ar
    21    13    14   ar
    22    14    16    1
    23    16    17    1
    24    14    15   ar
    25     9     1   ar
    26    15    10   ar
    27     8     3   ar
    28    25    26    1
@<TRIPOS>MOLECULE
*****
 26 28 0 0 0
SMALL
GASTEIGER

@<TRIPOS>ATOM
      1 C         140.8668  139.6748  164.8519 C.ar    1  UNL1        0.0726
      2 C         142.2012  139.0159  165.0394 C.ar    1  UNL1        0.0235
      3 C         143.2573  139.9576  164.5417 C.ar    1  UNL1        0.0643
      4 C         144.7516  139.8455  164.4754 C.ar    1  UNL1        0.0176
      5 C         145.5642  140.9743  163.9139 C.ar    1  UNL1        0.0030
      6 C         144.8825  142.2154  163.4188 C.ar    1  UNL1        0.0190
      7 C         143.3882  142.3275  163.4851 C.ar    1  UNL1        0.0801
      8 N         142.5756  141.1987  164.0466 N.ar    1  UNL1       -0.3034
      9 C         141.0982  141.0238  164.2383 C.ar    1  UNL1        0.0862
     10 C         140.0383  142.0228  163.8794 C.ar    1  UNL1        0.1006
     11 C         139.4364  142.8926  164.9431 C.ar    1  UNL1        0.0208
     12 C         138.3765  143.8915  164.5842 C.ar    1  UNL1        0.0064
     13 C         137.9184  144.0206  163.1617 C.ar    1  UNL1        0.0577
     14 C         138.5203  143.1508  162.0981 C.ar    1  UNL1        0.2250
     15 N         139.5802  142.1519  162.4570 N.ar    1  UNL1       -0.2102
     16 O         138.0622  143.2799  160.6756 O.3     1  UNL1       -0.4561
     17 C         138.5544  142.3144  159.6386 C.3     1  UNL1        0.2542
     18 N         138.9940  139.2560  166.6033 N.am    1  UNL1       -0.2735
     19 C         139.5348  139.0878  165.2144 C.2     1  UNL1        0.2506
     20 O         138.7437  138.3325  164.1880 O.2     1  UNL1       -0.2699
     21 C         137.4752  137.1807  166.9722 C.3     1  UNL1        0.0233
     22 C         137.6621  138.6690  166.9658 C.3     1  UNL1        0.0939
     23 C         139.7852  140.0113  167.6299 C.3     1  UNL1        0.1254
     24 C         139.2493  140.1704  169.0218 C.3     1  UNL1        0.1586
     25 O         140.0159  139.6206  170.1881 O.3     1  UNL1       -0.3802
     26 H         140.0387  138.6524  170.1325 H       1  UNL1        0.2105
@<TRIPOS>BOND
     1    21    22    1
     2    22    18    1
     3    18    23    1
     4    23    24    1
     5    24    25    1
     6    18    19   am
     7    19    20    2
     8    19     1    1
     9     1     2   ar
    10     2     3   ar
    11     3     4   ar
    12     4     5   ar
    13     5     6   ar
    14     6     7   ar
    15     7     8   ar
    16     8     9   ar
    17     9    10    1
    18    10    11   ar
    19    11    12   ar
    20    12    13   ar
    21    13    14   ar
    22    14    16    1
    23    16    17    1
    24    14    15   ar
    25     9     1   ar
    26    15    10   ar
    27     8     3   ar
    28    25    26    1
@<TRIPOS>MOLECULE
*****
 26 28 0 0 0
SMALL
GASTEIGER

@<TRIPOS>ATOM
      1 C         140.1363  140.3074  165.6742 C.ar    1  UNL1        0.0726
      2 C         139.1986  140.2006  166.8401 C.ar    1  UNL1        0.0235
      3 C         140.0207  140.1647  168.0943 C.ar    1  UNL1        0.0643
      4 C         139.6395  140.0660  169.5417 C.ar    1  UNL1        0.0176
      5 C         140.7041  140.0518  170.5983 C.ar    1  UNL1        0.0030
      6 C         142.1499  140.1364  170.2075 C.ar    1  UNL1        0.0190
      7 C         142.5310  140.2352  168.7601 C.ar    1  UNL1        0.0801
      8 N         141.4664  140.2493  167.7035 N.ar    1  UNL1       -0.3034
      9 C         141.5378  140.3375  166.2078 C.ar    1  UNL1        0.0862
     10 C         142.7909  140.4381  165.3894 C.ar    1  UNL1        0.1006
     11 C         143.6964  139.2497  165.2550 C.ar    1  UNL1        0.0208
     12 C         144.9494  139.3503  164.4366 C.ar    1  UNL1        0.0064
     13 C         145.2970  140.6392  163.7526 C.ar    1  UNL1        0.0577
     14 C         144.3915  141.8275  163.8870 C.ar    1  UNL1        0.2250
     15 N         143.1385  141.7269  164.7054 N.ar    1  UNL1       -0.2102
     16 O         144.7391  143.1164  163.2029 O.3     1  UNL1       -0.4561
     17 C         144.3515  143.3334  161.7702 C.3     1  UNL1        0.2542
     18 N         139.5603  139.1078  163.4428 N.am    1  UNL1       -0.2735
     19 C         139.7417  140.3726  164.2285 C.2     1  UNL1        0.2506
     20 O         139.5283  141.7025  163.5685 O.2     1  UNL1       -0.2699
     21 C         137.7843  138.7656  161.5776 C.3     1  UNL1        0.0233
     22 C         139.1657  139.1730  161.9971 C.3     1  UNL1        0.0939
     23 C         139.7737  137.7777  164.1027 C.3     1  UNL1        0.1254
     24 C         141.0485  137.0218  163.8720 C.3     1  UNL1        0.1586
     25 O         141.6142  136.9103  162.4872 O.3     1  UNL1       -0.3802
     26 H         141.0131  136.3876  161.9335 H       1  UNL1        0.2105
@<TRIPOS>BOND
     1    21    22    1
     2    22    18    1
     3    18    23    1
     4    23    24    1
     5    24    25    1
     6    18    19   am
     7    19    20    2
     8    19     1    1
     9     1     2   ar
    10     2     3   ar
    11     3     4   ar
    12     4     5   ar
    13     5     6   ar
    14     6     7   ar
    15     7     8   ar
    16     8     9   ar
    17     9    10    1
    18    10    11   ar
    19    11    12   ar
    20    12    13   ar
    21    13    14   ar
    22    14    16    1
    23    16    17    1
    24    14    15   ar
    25     9     1   ar
    26    15    10   ar
    27     8     3   ar
    28    25    26    1
@<TRIPOS>MOLECULE
*****
 26 28 0 0 0
SMALL
GASTEIGER

@<TRIPOS>ATOM
      1 C         141.3113  142.5314  166.7127 C.ar    1  UNL1        0.0726
      2 C         139.9768  143.2038  166.8427 C.ar    1  UNL1        0.0235
      3 C         139.4968  143.5516  165.4648 C.ar    1  UNL1        0.0643
      4 C         138.2487  144.2257  164.9771 C.ar    1  UNL1        0.0176
      5 C         138.0386  144.4424  163.5078 C.ar    1  UNL1        0.0030
      6 C         139.0764  143.9849  162.5262 C.ar    1  UNL1        0.0190
      7 C         140.3245  143.3108  163.0139 C.ar    1  UNL1        0.0801
      8 N         140.5347  143.0941  164.4832 N.ar    1  UNL1       -0.3034
      9 C         141.6561  142.4636  165.2544 C.ar    1  UNL1        0.0862
     10 C         142.9033  141.8696  164.6700 C.ar    1  UNL1        0.1006
     11 C         144.1840  142.6506  164.6844 C.ar    1  UNL1        0.0208
     12 C         145.4313  142.0566  164.1000 C.ar    1  UNL1        0.0064
     13 C         145.3979  140.6817  163.5011 C.ar    1  UNL1        0.0577
     14 C         144.1173  139.9009  163.4867 C.ar    1  UNL1        0.2250
     15 N         142.8700  140.4949  164.0712 N.ar    1  UNL1       -0.2102
     16 O         144.0839  138.5260  162.8879 O.3     1  UNL1       -0.4561
     17 C         143.1336  138.2182  161.7688 C.3     1  UNL1        0.2542
     18 N         141.6737  140.8611  168.6694 N.am    1  UNL1       -0.2735
     19 C         142.1533  142.0171  167.8426 C.2     1  UNL1        0.2506
     20 O         143.4748  142.6587  168.1456 O.2     1  UNL1       -0.2699
     21 C         142.6391  138.8699  170.0307 C.3     1  UNL1        0.0233
     22 C         142.5156  140.3468  169.7993 C.3     1  UNL1        0.0939
     23 C         140.3521  140.2194  168.3664 C.3     1  UNL1        0.1254
     24 C         139.2202  140.3358  169.3437 C.3     1  UNL1        0.1586
     25 O         139.1826  141.4782  170.3152 O.3     1  UNL1       -0.3802
     26 H         139.9248  141.4002  170.9349 H       1  UNL1        0.2105
@<TRIPOS>BOND
     1    21    22    1
     2    22    18    1
     3    18    23    1
     4    23    24    1
     5    24    25    1
     6    18    19   am
     7    19    20    2
     8    19     1    1
     9     1     2   ar
    10     2     3   ar
    11     3     4   ar
    12     4     5   ar
    13     5     6   ar
    14     6     7   ar
    15     7     8   ar
    16     8     9   ar
    17     9    10    1
    18    10    11   ar
    19    11    12   ar
    20    12    13   ar
    21    13    14   ar
    22    14    16    1
    23    16    17    1
    24    14    15   ar
    25     9     1   ar
    26    15    10   ar
    27     8     3   ar
    28    25    26    1
@<TRIPOS>MOLECULE
*****
 26 28 0 0 0
SMALL
GASTEIGER

@<TRIPOS>ATOM
      1 C         141.8961  141.0813  166.1900 C.ar    1  UNL1        0.0726
      2 C         143.3218  140.6194  166.1253 C.ar    1  UNL1        0.0235
      3 C         143.9374  141.1883  164.8814 C.ar    1  UNL1        0.0643
      4 C         145.3147  141.0706  164.2990 C.ar    1  UNL1        0.0176
      5 C         145.6468  141.7666  163.0124 C.ar    1  UNL1        0.0030
      6 C         144.6017  142.5801  162.3083 C.ar    1  UNL1        0.0190
      7 C         143.2244  142.6978  162.8907 C.ar    1  UNL1        0.0801
      8 N         142.8923  142.0019  164.1773 N.ar    1  UNL1       -0.3034
      9 C         141.6307  141.9358  164.9861 C.ar    1  UNL1        0.0862
     10 C         140.3318  142.6064  164.6499 C.ar    1  UNL1        0.1006
     11 C         139.8944  143.8203  165.4150 C.ar    1  UNL1        0.0208
     12 C         138.5954  144.4909  165.0787 C.ar    1  UNL1        0.0064
     13 C         137.7339  143.9477  163.9775 C.ar    1  UNL1        0.0577
     14 C         138.1713  142.7339  163.2125 C.ar    1  UNL1        0.2250
     15 N         139.4703  142.0633  163.5487 N.ar    1  UNL1       -0.2102
     16 O         137.3098  142.1907  162.1113 O.3     1  UNL1       -0.4561
     17 C         137.6742  140.8987  161.4419 C.3     1  UNL1        0.2542
     18 N         140.9193  141.5145  168.5582 N.am    1  UNL1       -0.2735
     19 C         140.9092  140.7475  167.2692 C.2     1  UNL1        0.2506
     20 O         139.9122  139.6466  167.0593 O.2     1  UNL1       -0.2699
     21 C         140.2388  140.0926  170.6235 C.3     1  UNL1        0.0233
     22 C         139.9324  141.1806  169.6373 C.3     1  UNL1        0.0939
     23 C         141.9163  142.6154  168.7681 C.3     1  UNL1        0.1254
     24 C         142.9888  142.4680  169.8063 C.3     1  UNL1        0.1586
     25 O         142.7554  142.9664  171.2018 O.3     1  UNL1       -0.3802
     26 H         142.6723  143.9328  171.1903 H       1  UNL1        0.2105
@<TRIPOS>BOND
     1    21    22    1
     2    22    18    1
     3    18    23    1
     4    23    24    1
     5    24    25    1
     6    18    19   am
     7    19    20    2
     8    19     1    1
     9     1     2   ar
    10     2     3   ar
    11     3     4   ar
    12     4     5   ar
    13     5     6   ar
    14     6     7   ar
    15     7     8   ar
    16     8     9   ar
    17     9    10    1
    18    10    11   ar
    19    11    12   ar
    20    12    13   ar
    21    13    14   ar
    22    14    16    1
    23    16    17    1
    24    14    15   ar
    25     9     1   ar
    26    15    10   ar
    27     8     3   ar
    28    25    26    1
