@<TRIPOS>MOLECULE
*****
 32 36 0 0 0
SMALL
GASTEIGER

@<TRIPOS>ATOM
      1 C         141.4676  138.9429  163.6779 C.ar    1  UNL1        0.0878
      2 C         140.7762  138.1178  162.6332 C.ar    1  UNL1        0.0091
      3 C         139.4072  137.5653  162.8988 C.ar    1  UNL1        0.0194
      4 C         138.7296  137.8378  164.2089 C.ar    1  UNL1        0.0844
      5 N         139.4209  138.6628  165.2536 N.ar    1  UNL1       -0.2576
      6 C         138.7432  138.9353  166.5637 C.ar    1  UNL1        0.2672
      7 O         137.3743  138.3828  166.8292 O.2     1  UNL1       -0.2665
      8 C         139.4347  139.7604  167.6084 C.ar    1  UNL1        0.0742
      9 C         138.7570  140.0329  168.9186 C.ar    1  UNL1        0.0063
     10 C         139.4484  140.8580  169.9632 C.ar    1  UNL1        0.0003
     11 C         140.8174  141.4105  169.6977 C.ar    1  UNL1        0.0015
     12 C         141.5088  142.2356  170.7424 C.ar    1  UNL1        0.0000
     13 C         142.8778  142.7881  170.4768 C.ar    1  UNL1        0.0000
     14 C         143.5554  142.5155  169.1667 C.ar    1  UNL1        0.0000
     15 C         142.8641  141.6905  168.1220 C.ar    1  UNL1        0.0015
     16 C         141.4951  141.1380  168.3875 C.ar    1  UNL1        0.0179
     17 C         140.8037  140.3129  167.3429 C.ar    1  UNL1        0.0875
     18 N         141.4813  140.0404  166.0327 N.ar    1  UNL1       -0.2276
     19 C         140.7900  139.2154  164.9881 C.ar    1  UNL1        0.1543
     20 N         143.1491  140.9219  163.7551 N.am    1  UNL1       -0.2994
     21 C         142.8366  139.4954  163.4124 C.2     1  UNL1        0.2488
     22 O         143.8932  138.6214  162.8041 O.2     1  UNL1       -0.2700
     23 H         142.4557  141.4955  164.1543 H       1  UNL1        0.1498
     24 C         144.5182  141.4743  163.4896 C.3     1  UNL1        0.1070
     25 C         144.6741  142.8659  162.9518 C.3     1  UNL1        0.0937
     26 C         139.8203  146.2115  161.8345 C.3     1  UNL1        0.0897
     27 N         141.0338  145.3751  162.1138 N.3     1  UNL1       -0.2691
     28 C         141.6777  145.4165  163.4680 C.3     1  UNL1        0.0897
     29 C         142.8912  144.5800  163.7472 C.3     1  UNL1        0.0897
     30 N         143.4606  143.7023  162.6725 N.3     1  UNL1       -0.2689
     31 C         142.8167  143.6609  161.3183 C.3     1  UNL1        0.0897
     32 C         141.6033  144.4973  161.0390 C.3     1  UNL1        0.0897
@<TRIPOS>BOND
     1    26    27    1
     2    27    28    1
     3    28    29    1
     4    29    30    1
     5    30    25    1
     6    25    24    1
     7    24    20    1
     8    20    21   am
     9    21    22    2
    10    21     1    1
    11     1     2   ar
    12     2     3   ar
    13     3     4   ar
    14     4     5   ar
    15     5     6   ar
    16     6     7    2
    17     6     8   ar
    18     8     9   ar
    19     9    10   ar
    20    10    11   ar
    21    11    12   ar
    22    12    13   ar
    23    13    14   ar
    24    14    15   ar
    25    15    16   ar
    26    16    17   ar
    27    17    18   ar
    28    18    19   ar
    29    30    31    1
    30    31    32    1
    31    32    27    1
    32    19     1   ar
    33    19     5   ar
    34    17     8   ar
    35    16    11   ar
    36    20    23    1
@<TRIPOS>MOLECULE
*****
 32 36 0 0 0
SMALL
GASTEIGER

@<TRIPOS>ATOM
      1 C         139.5203  140.2140  167.2508 C.ar    1  UNL1        0.0878
      2 C         139.1099  139.9205  168.6635 C.ar    1  UNL1        0.0091
      3 C         139.9610  140.3920  169.8051 C.ar    1  UNL1        0.0194
      4 C         141.2224  141.1570  169.5342 C.ar    1  UNL1        0.0844
      5 N         141.6329  141.4506  168.1216 N.ar    1  UNL1       -0.2576
      6 C         142.8943  142.2156  167.8507 C.ar    1  UNL1        0.2672
      7 O         143.7454  142.6871  168.9923 O.2     1  UNL1       -0.2665
      8 C         143.3047  142.5091  166.4380 C.ar    1  UNL1        0.0742
      9 C         144.5662  143.2741  166.1671 C.ar    1  UNL1        0.0063
     10 C         144.9766  143.5677  164.7545 C.ar    1  UNL1        0.0003
     11 C         144.1256  143.0961  163.6128 C.ar    1  UNL1        0.0015
     12 C         144.5360  143.3896  162.2002 C.ar    1  UNL1        0.0000
     13 C         143.6849  142.9181  161.0586 C.ar    1  UNL1        0.0000
     14 C         142.4235  142.1531  161.3296 C.ar    1  UNL1        0.0000
     15 C         142.0130  141.8596  162.7421 C.ar    1  UNL1        0.0015
     16 C         142.8641  142.3311  163.8837 C.ar    1  UNL1        0.0179
     17 C         142.4537  142.0376  165.2964 C.ar    1  UNL1        0.0875
     18 N         141.1922  141.2725  165.5673 N.ar    1  UNL1       -0.2276
     19 C         140.7818  140.9790  166.9799 C.ar    1  UNL1        0.1543
     20 N         138.8826  140.3016  164.7338 N.am    1  UNL1       -0.2994
     21 C         138.6693  139.7425  166.1092 C.2     1  UNL1        0.2488
     22 O         137.6048  138.7117  166.3430 O.2     1  UNL1       -0.2700
     23 H         139.5812  140.9781  164.5803 H       1  UNL1        0.1498
     24 C         138.0315  139.8300  163.5921 C.3     1  UNL1        0.1070
     25 C         137.2908  140.8245  162.7481 C.3     1  UNL1        0.0937
     26 C         139.7164  146.1939  161.6142 C.3     1  UNL1        0.0897
     27 N         139.1100  144.8516  161.8977 N.3     1  UNL1       -0.2691
     28 C         139.2752  143.7311  160.9141 C.3     1  UNL1        0.0897
     29 C         138.6687  142.3887  161.1977 C.3     1  UNL1        0.0897
     30 N         137.8971  142.1669  162.4647 N.3     1  UNL1       -0.2689
     31 C         137.7320  143.2873  163.4482 C.3     1  UNL1        0.0897
     32 C         138.3383  144.6296  163.1647 C.3     1  UNL1        0.0897
@<TRIPOS>BOND
     1    26    27    1
     2    27    28    1
     3    28    29    1
     4    29    30    1
     5    30    25    1
     6    25    24    1
     7    24    20    1
     8    20    21   am
     9    21    22    2
    10    21     1    1
    11     1     2   ar
    12     2     3   ar
    13     3     4   ar
    14     4     5   ar
    15     5     6   ar
    16     6     7    2
    17     6     8   ar
    18     8     9   ar
    19     9    10   ar
    20    10    11   ar
    21    11    12   ar
    22    12    13   ar
    23    13    14   ar
    24    14    15   ar
    25    15    16   ar
    26    16    17   ar
    27    17    18   ar
    28    18    19   ar
    29    30    31    1
    30    31    32    1
    31    32    27    1
    32    19     1   ar
    33    19     5   ar
    34    17     8   ar
    35    16    11   ar
    36    20    23    1
@<TRIPOS>MOLECULE
*****
 32 36 0 0 0
SMALL
GASTEIGER

@<TRIPOS>ATOM
      1 C         141.4137  139.2371  163.5987 C.ar    1  UNL1        0.0878
      2 C         140.7389  138.4678  162.5019 C.ar    1  UNL1        0.0091
      3 C         139.3861  137.8625  162.7331 C.ar    1  UNL1        0.0194
      4 C         138.7080  138.0264  164.0610 C.ar    1  UNL1        0.0844
      5 N         139.3827  138.7957  165.1577 N.ar    1  UNL1       -0.2576
      6 C         138.7046  138.9596  166.4856 C.ar    1  UNL1        0.2672
      7 O         137.3518  138.3543  166.7168 O.2     1  UNL1       -0.2665
      8 C         139.3794  139.7290  167.5824 C.ar    1  UNL1        0.0742
      9 C         138.7013  139.8929  168.9103 C.ar    1  UNL1        0.0063
     10 C         139.3761  140.6622  170.0071 C.ar    1  UNL1        0.0003
     11 C         140.7289  141.2675  169.7760 C.ar    1  UNL1        0.0015
     12 C         141.4036  142.0368  170.8728 C.ar    1  UNL1        0.0000
     13 C         142.7565  142.6421  170.6416 C.ar    1  UNL1        0.0000
     14 C         143.4345  142.4782  169.3137 C.ar    1  UNL1        0.0000
     15 C         142.7598  141.7089  168.2170 C.ar    1  UNL1        0.0015
     16 C         141.4070  141.1036  168.4481 C.ar    1  UNL1        0.0179
     17 C         140.7322  140.3343  167.3513 C.ar    1  UNL1        0.0875
     18 N         141.4103  140.1703  166.0234 N.ar    1  UNL1       -0.2276
     19 C         140.7356  139.4010  164.9266 C.ar    1  UNL1        0.1543
     20 N         142.9482  141.3287  163.4563 N.am    1  UNL1       -0.2994
     21 C         142.7665  139.8424  163.3676 C.2     1  UNL1        0.2488
     22 O         143.9377  138.9614  163.0478 O.2     1  UNL1       -0.2700
     23 H         142.1796  141.9069  163.6662 H       1  UNL1        0.1498
     24 C         144.3011  141.9340  163.2252 C.3     1  UNL1        0.1070
     25 C         144.4230  143.2478  162.5116 C.3     1  UNL1        0.0937
     26 C         140.1107  145.0225  158.7362 C.3     1  UNL1        0.0897
     27 N         141.1887  144.5788  159.6800 N.3     1  UNL1       -0.2691
     28 C         142.2761  143.6638  159.1999 C.3     1  UNL1        0.0897
     29 C         143.3542  143.2201  160.1438 C.3     1  UNL1        0.0897
     30 N         143.3449  143.6914  161.5678 N.3     1  UNL1       -0.2689
     31 C         142.2576  144.6064  162.0479 C.3     1  UNL1        0.0897
     32 C         141.1795  145.0501  161.1041 C.3     1  UNL1        0.0897
@<TRIPOS>BOND
     1    26    27    1
     2    27    28    1
     3    28    29    1
     4    29    30    1
     5    30    25    1
     6    25    24    1
     7    24    20    1
     8    20    21   am
     9    21    22    2
    10    21     1    1
    11     1     2   ar
    12     2     3   ar
    13     3     4   ar
    14     4     5   ar
    15     5     6   ar
    16     6     7    2
    17     6     8   ar
    18     8     9   ar
    19     9    10   ar
    20    10    11   ar
    21    11    12   ar
    22    12    13   ar
    23    13    14   ar
    24    14    15   ar
    25    15    16   ar
    26    16    17   ar
    27    17    18   ar
    28    18    19   ar
    29    30    31    1
    30    31    32    1
    31    32    27    1
    32    19     1   ar
    33    19     5   ar
    34    17     8   ar
    35    16    11   ar
    36    20    23    1
@<TRIPOS>MOLECULE
*****
 32 36 0 0 0
SMALL
GASTEIGER

@<TRIPOS>ATOM
      1 C         141.7486  141.7791  168.3703 C.ar    1  UNL1        0.0878
      2 C         141.3091  142.1147  169.7647 C.ar    1  UNL1        0.0091
      3 C         140.0672  141.4919  170.3300 C.ar    1  UNL1        0.0194
      4 C         139.2647  140.5334  169.5010 C.ar    1  UNL1        0.0844
      5 N         139.7042  140.1978  168.1066 N.ar    1  UNL1       -0.2576
      6 C         138.9017  139.2393  167.2776 C.ar    1  UNL1        0.2672
      7 O         137.6598  138.6164  167.8429 O.2     1  UNL1       -0.2665
      8 C         139.3412  138.9036  165.8832 C.ar    1  UNL1        0.0742
      9 C         138.5387  137.9451  165.0542 C.ar    1  UNL1        0.0063
     10 C         138.9782  137.6095  163.6598 C.ar    1  UNL1        0.0003
     11 C         140.2202  138.2324  163.0945 C.ar    1  UNL1        0.0015
     12 C         140.6597  137.8968  161.7002 C.ar    1  UNL1        0.0000
     13 C         141.9016  138.5196  161.1349 C.ar    1  UNL1        0.0000
     14 C         142.7041  139.4781  161.9639 C.ar    1  UNL1        0.0000
     15 C         142.2646  139.8138  163.3583 C.ar    1  UNL1        0.0015
     16 C         141.0227  139.1909  163.9235 C.ar    1  UNL1        0.0179
     17 C         140.5832  139.5265  165.3179 C.ar    1  UNL1        0.0875
     18 N         141.3856  140.4850  166.1470 N.ar    1  UNL1       -0.2276
     19 C         140.9462  140.8206  167.5413 C.ar    1  UNL1        0.1543
     20 N         143.1121  142.6240  166.3266 N.am    1  UNL1       -0.2994
     21 C         142.9906  142.4020  167.8051 C.2     1  UNL1        0.2488
     22 O         144.1111  142.8029  168.7183 O.2     1  UNL1       -0.2700
     23 H         142.3767  142.3610  165.7272 H       1  UNL1        0.1498
     24 C         144.3541  143.2470  165.7613 C.3     1  UNL1        0.1070
     25 C         144.9705  142.6905  164.5121 C.3     1  UNL1        0.0937
     26 C         142.4637  143.8054  159.1762 C.3     1  UNL1        0.0897
     27 N         143.0904  143.5267  160.5102 N.3     1  UNL1       -0.2691
     28 C         144.3010  142.6457  160.6007 C.3     1  UNL1        0.0897
     29 C         144.9277  142.3669  161.9347 C.3     1  UNL1        0.0897
     30 N         144.3438  142.9692  163.1782 N.3     1  UNL1       -0.2689
     31 C         143.1331  143.8502  163.0877 C.3     1  UNL1        0.0897
     32 C         142.5064  144.1290  161.7537 C.3     1  UNL1        0.0897
@<TRIPOS>BOND
     1    26    27    1
     2    27    28    1
     3    28    29    1
     4    29    30    1
     5    30    25    1
     6    25    24    1
     7    24    20    1
     8    20    21   am
     9    21    22    2
    10    21     1    1
    11     1     2   ar
    12     2     3   ar
    13     3     4   ar
    14     4     5   ar
    15     5     6   ar
    16     6     7    2
    17     6     8   ar
    18     8     9   ar
    19     9    10   ar
    20    10    11   ar
    21    11    12   ar
    22    12    13   ar
    23    13    14   ar
    24    14    15   ar
    25    15    16   ar
    26    16    17   ar
    27    17    18   ar
    28    18    19   ar
    29    30    31    1
    30    31    32    1
    31    32    27    1
    32    19     1   ar
    33    19     5   ar
    34    17     8   ar
    35    16    11   ar
    36    20    23    1
@<TRIPOS>MOLECULE
*****
 32 36 0 0 0
SMALL
GASTEIGER

@<TRIPOS>ATOM
      1 C         139.4614  140.1501  167.1151 C.ar    1  UNL1        0.0878
      2 C         139.0596  139.8813  168.5351 C.ar    1  UNL1        0.0091
      3 C         139.9116  140.3824  169.6633 C.ar    1  UNL1        0.0194
      4 C         141.1654  141.1525  169.3716 C.ar    1  UNL1        0.0844
      5 N         141.5672  141.4213  167.9517 N.ar    1  UNL1       -0.2576
      6 C         142.8209  142.1914  167.6600 C.ar    1  UNL1        0.2672
      7 O         143.6729  142.6925  168.7882 O.2     1  UNL1       -0.2665
      8 C         143.2227  142.4603  166.2400 C.ar    1  UNL1        0.0742
      9 C         144.4765  143.2303  165.9483 C.ar    1  UNL1        0.0063
     10 C         144.8782  143.4992  164.5283 C.ar    1  UNL1        0.0003
     11 C         144.0262  142.9980  163.4000 C.ar    1  UNL1        0.0015
     12 C         144.4280  143.2669  161.9801 C.ar    1  UNL1        0.0000
     13 C         143.5760  142.7657  160.8519 C.ar    1  UNL1        0.0000
     14 C         142.3222  141.9957  161.1436 C.ar    1  UNL1        0.0000
     15 C         141.9205  141.7268  162.5635 C.ar    1  UNL1        0.0015
     16 C         142.7725  142.2280  163.6917 C.ar    1  UNL1        0.0179
     17 C         142.3707  141.9591  165.1118 C.ar    1  UNL1        0.0875
     18 N         141.1169  141.1890  165.4035 N.ar    1  UNL1       -0.2276
     19 C         140.7152  140.9202  166.8234 C.ar    1  UNL1        0.1543
     20 N         138.6807  140.3100  164.6423 N.am    1  UNL1       -0.2994
     21 C         138.6094  139.6490  165.9869 C.2     1  UNL1        0.2488
     22 O         137.6860  138.4867  166.2033 O.2     1  UNL1       -0.2700
     23 H         139.2867  141.0727  164.5003 H       1  UNL1        0.1498
     24 C         137.8286  139.8087  163.5141 C.3     1  UNL1        0.1070
     25 C         138.2484  138.5949  162.7392 C.3     1  UNL1        0.0937
     26 C         143.9998  137.8618  161.1955 C.3     1  UNL1        0.0897
     27 N         142.5620  138.0451  161.5814 N.3     1  UNL1       -0.2691
     28 C         142.1389  137.8592  163.0085 C.3     1  UNL1        0.0897
     29 C         140.7009  138.0425  163.3944 C.3     1  UNL1        0.0897
     30 N         139.6862  138.4116  162.3533 N.3     1  UNL1       -0.2689
     31 C         140.1093  138.5975  160.9262 C.3     1  UNL1        0.0897
     32 C         141.5471  138.4142  160.5403 C.3     1  UNL1        0.0897
@<TRIPOS>BOND
     1    26    27    1
     2    27    28    1
     3    28    29    1
     4    29    30    1
     5    30    25    1
     6    25    24    1
     7    24    20    1
     8    20    21   am
     9    21    22    2
    10    21     1    1
    11     1     2   ar
    12     2     3   ar
    13     3     4   ar
    14     4     5   ar
    15     5     6   ar
    16     6     7    2
    17     6     8   ar
    18     8     9   ar
    19     9    10   ar
    20    10    11   ar
    21    11    12   ar
    22    12    13   ar
    23    13    14   ar
    24    14    15   ar
    25    15    16   ar
    26    16    17   ar
    27    17    18   ar
    28    18    19   ar
    29    30    31    1
    30    31    32    1
    31    32    27    1
    32    19     1   ar
    33    19     5   ar
    34    17     8   ar
    35    16    11   ar
    36    20    23    1
@<TRIPOS>MOLECULE
*****
 32 36 0 0 0
SMALL
GASTEIGER

@<TRIPOS>ATOM
      1 C         142.6276  143.1987  159.9674 C.ar    1  UNL1        0.0878
      2 C         142.4847  143.8007  158.6009 C.ar    1  UNL1        0.0091
      3 C         141.4382  144.8449  158.3471 C.ar    1  UNL1        0.0194
      4 C         140.5346  145.2872  159.4597 C.ar    1  UNL1        0.0844
      5 N         140.6775  144.6852  160.8261 N.ar    1  UNL1       -0.2576
      6 C         139.7739  145.1275  161.9387 C.ar    1  UNL1        0.2672
      7 O         138.7274  146.1717  161.6849 O.2     1  UNL1       -0.2665
      8 C         139.9168  144.5255  163.3052 C.ar    1  UNL1        0.0742
      9 C         139.0132  144.9677  164.4178 C.ar    1  UNL1        0.0063
     10 C         139.1560  144.3658  165.7843 C.ar    1  UNL1        0.0003
     11 C         140.2025  143.3215  166.0382 C.ar    1  UNL1        0.0015
     12 C         140.3454  142.7195  167.4046 C.ar    1  UNL1        0.0000
     13 C         141.3919  141.6753  167.6584 C.ar    1  UNL1        0.0000
     14 C         142.2955  141.2331  166.5458 C.ar    1  UNL1        0.0000
     15 C         142.1526  141.8350  165.1794 C.ar    1  UNL1        0.0015
     16 C         141.1061  142.8792  164.9256 C.ar    1  UNL1        0.0179
     17 C         140.9632  143.4812  163.5591 C.ar    1  UNL1        0.0875
     18 N         141.8669  143.0390  162.4464 N.ar    1  UNL1       -0.2276
     19 C         141.7240  143.6409  161.0800 C.ar    1  UNL1        0.1543
     20 N         143.2780  140.8101  160.7558 N.am    1  UNL1       -0.2994
     21 C         143.6741  142.1545  160.2212 C.2     1  UNL1        0.2488
     22 O         145.1168  142.4546  159.9406 O.2     1  UNL1       -0.2700
     23 H         142.3312  140.6131  160.9400 H       1  UNL1        0.1498
     24 C         144.3246  139.7658  161.0096 C.3     1  UNL1        0.1070
     25 C         143.9217  138.3974  161.4733 C.3     1  UNL1        0.0937
     26 C         138.9966  137.6957  164.8276 C.3     1  UNL1        0.0897
     27 N         140.2278  137.8712  163.9890 N.3     1  UNL1       -0.2691
     28 C         140.1436  137.7427  162.4969 C.3     1  UNL1        0.0897
     29 C         141.3750  137.9181  161.6583 C.3     1  UNL1        0.0897
     30 N         142.6904  138.2220  162.3119 N.3     1  UNL1       -0.2689
     31 C         142.7746  138.3505  163.8040 C.3     1  UNL1        0.0897
     32 C         141.5434  138.1751  164.6426 C.3     1  UNL1        0.0897
@<TRIPOS>BOND
     1    26    27    1
     2    27    28    1
     3    28    29    1
     4    29    30    1
     5    30    25    1
     6    25    24    1
     7    24    20    1
     8    20    21   am
     9    21    22    2
    10    21     1    1
    11     1     2   ar
    12     2     3   ar
    13     3     4   ar
    14     4     5   ar
    15     5     6   ar
    16     6     7    2
    17     6     8   ar
    18     8     9   ar
    19     9    10   ar
    20    10    11   ar
    21    11    12   ar
    22    12    13   ar
    23    13    14   ar
    24    14    15   ar
    25    15    16   ar
    26    16    17   ar
    27    17    18   ar
    28    18    19   ar
    29    30    31    1
    30    31    32    1
    31    32    27    1
    32    19     1   ar
    33    19     5   ar
    34    17     8   ar
    35    16    11   ar
    36    20    23    1
@<TRIPOS>MOLECULE
*****
 32 36 0 0 0
SMALL
GASTEIGER

@<TRIPOS>ATOM
      1 C         143.1827  142.1903  167.3291 C.ar    1  UNL1        0.0878
      2 C         143.4938  142.7505  168.6854 C.ar    1  UNL1        0.0091
      3 C         142.6213  142.4081  169.8564 C.ar    1  UNL1        0.0194
      4 C         141.4377  141.5055  169.6713 C.ar    1  UNL1        0.0844
      5 N         141.1265  140.9453  168.3151 N.ar    1  UNL1       -0.2576
      6 C         139.9429  140.0427  168.1300 C.ar    1  UNL1        0.2672
      7 O         139.0704  139.7002  169.3011 O.2     1  UNL1       -0.2665
      8 C         139.6318  139.4825  166.7737 C.ar    1  UNL1        0.0742
      9 C         138.4481  138.5798  166.5886 C.ar    1  UNL1        0.0063
     10 C         138.1370  138.0196  165.2324 C.ar    1  UNL1        0.0003
     11 C         139.0095  138.3621  164.0612 C.ar    1  UNL1        0.0015
     12 C         138.6983  137.8019  162.7050 C.ar    1  UNL1        0.0000
     13 C         139.5708  138.1443  161.5339 C.ar    1  UNL1        0.0000
     14 C         140.7545  139.0469  161.7191 C.ar    1  UNL1        0.0000
     15 C         141.0656  139.6071  163.0753 C.ar    1  UNL1        0.0015
     16 C         140.1931  139.2647  164.2463 C.ar    1  UNL1        0.0179
     17 C         140.5043  139.8249  165.6026 C.ar    1  UNL1        0.0875
     18 N         141.6879  140.7275  165.7878 N.ar    1  UNL1       -0.2276
     19 C         141.9991  141.2877  167.1439 C.ar    1  UNL1        0.1543
     20 N         144.0956  141.6274  164.9627 N.am    1  UNL1       -0.2994
     21 C         144.0552  142.5328  166.1580 C.2     1  UNL1        0.2488
     22 O         144.8873  143.7806  166.1821 O.2     1  UNL1       -0.2700
     23 H         143.5495  140.8084  164.9469 H       1  UNL1        0.1498
     24 C         144.9682  141.9699  163.7916 C.3     1  UNL1        0.1070
     25 C         144.5851  143.0930  162.8740 C.3     1  UNL1        0.0937
     26 C         138.8964  144.9887  162.6650 C.3     1  UNL1        0.0897
     27 N         140.3185  144.5148  162.7172 N.3     1  UNL1       -0.2691
     28 C         140.7215  143.2696  161.9843 C.3     1  UNL1        0.0897
     29 C         142.1438  142.7957  162.0366 C.3     1  UNL1        0.0897
     30 N         143.1629  143.5669  162.8218 N.3     1  UNL1       -0.2689
     31 C         142.7599  144.8121  163.5547 C.3     1  UNL1        0.0897
     32 C         141.3378  145.2860  163.5024 C.3     1  UNL1        0.0897
@<TRIPOS>BOND
     1    26    27    1
     2    27    28    1
     3    28    29    1
     4    29    30    1
     5    30    25    1
     6    25    24    1
     7    24    20    1
     8    20    21   am
     9    21    22    2
    10    21     1    1
    11     1     2   ar
    12     2     3   ar
    13     3     4   ar
    14     4     5   ar
    15     5     6   ar
    16     6     7    2
    17     6     8   ar
    18     8     9   ar
    19     9    10   ar
    20    10    11   ar
    21    11    12   ar
    22    12    13   ar
    23    13    14   ar
    24    14    15   ar
    25    15    16   ar
    26    16    17   ar
    27    17    18   ar
    28    18    19   ar
    29    30    31    1
    30    31    32    1
    31    32    27    1
    32    19     1   ar
    33    19     5   ar
    34    17     8   ar
    35    16    11   ar
    36    20    23    1
@<TRIPOS>MOLECULE
*****
 32 36 0 0 0
SMALL
GASTEIGER

@<TRIPOS>ATOM
      1 C         139.1706  142.6410  160.7639 C.ar    1  UNL1        0.0878
      2 C         138.8105  142.3976  159.3282 C.ar    1  UNL1        0.0091
      3 C         138.2578  141.0677  158.9087 C.ar    1  UNL1        0.0194
      4 C         138.0652  139.9813  159.9248 C.ar    1  UNL1        0.0844
      5 N         138.4252  140.2247  161.3604 N.ar    1  UNL1       -0.2576
      6 C         138.2326  139.1382  162.3766 C.ar    1  UNL1        0.2672
      7 O         137.6799  137.8084  161.9571 O.2     1  UNL1       -0.2665
      8 C         138.5927  139.3817  163.8123 C.ar    1  UNL1        0.0742
      9 C         138.4001  138.2952  164.8284 C.ar    1  UNL1        0.0063
     10 C         138.7601  138.5386  166.2640 C.ar    1  UNL1        0.0003
     11 C         139.3128  139.8685  166.6836 C.ar    1  UNL1        0.0015
     12 C         139.6729  140.1119  168.1192 C.ar    1  UNL1        0.0000
     13 C         140.2256  141.4417  168.5387 C.ar    1  UNL1        0.0000
     14 C         140.4182  142.5282  167.5226 C.ar    1  UNL1        0.0000
     15 C         140.0581  142.2848  166.0870 C.ar    1  UNL1        0.0015
     16 C         139.5055  140.9549  165.6675 C.ar    1  UNL1        0.0179
     17 C         139.1454  140.7115  164.2318 C.ar    1  UNL1        0.0875
     18 N         139.3380  141.7980  163.2156 N.ar    1  UNL1       -0.2276
     19 C         138.9779  141.5546  161.7800 C.ar    1  UNL1        0.1543
     20 N         140.2930  144.1458  162.5599 N.am    1  UNL1       -0.2994
     21 C         139.7233  143.9709  161.1834 C.2     1  UNL1        0.2488
     22 O         139.7062  145.1258  160.2264 O.2     1  UNL1       -0.2700
     23 H         140.3043  143.3878  163.1880 H       1  UNL1        0.1498
     24 C         140.8457  145.4757  162.9793 C.3     1  UNL1        0.1070
     25 C         142.2151  145.5613  163.5856 C.3     1  UNL1        0.0937
     26 C         145.6206  140.6398  164.0113 C.3     1  UNL1        0.0897
     27 N         144.7692  141.8702  163.9049 N.3     1  UNL1       -0.2691
     28 C         144.8169  142.7101  162.6630 C.3     1  UNL1        0.0897
     29 C         143.9655  143.9406  162.5566 C.3     1  UNL1        0.0897
     30 N         143.0665  144.3310  163.6920 N.3     1  UNL1       -0.2689
     31 C         143.0187  143.4910  164.9339 C.3     1  UNL1        0.0897
     32 C         143.8701  142.2607  165.0403 C.3     1  UNL1        0.0897
@<TRIPOS>BOND
     1    26    27    1
     2    27    28    1
     3    28    29    1
     4    29    30    1
     5    30    25    1
     6    25    24    1
     7    24    20    1
     8    20    21   am
     9    21    22    2
    10    21     1    1
    11     1     2   ar
    12     2     3   ar
    13     3     4   ar
    14     4     5   ar
    15     5     6   ar
    16     6     7    2
    17     6     8   ar
    18     8     9   ar
    19     9    10   ar
    20    10    11   ar
    21    11    12   ar
    22    12    13   ar
    23    13    14   ar
    24    14    15   ar
    25    15    16   ar
    26    16    17   ar
    27    17    18   ar
    28    18    19   ar
    29    30    31    1
    30    31    32    1
    31    32    27    1
    32    19     1   ar
    33    19     5   ar
    34    17     8   ar
    35    16    11   ar
    36    20    23    1
@<TRIPOS>MOLECULE
*****
 32 36 0 0 0
SMALL
GASTEIGER

@<TRIPOS>ATOM
      1 C         143.1199  141.9342  163.6371 C.ar    1  UNL1        0.0878
      2 C         143.8279  141.3129  162.4697 C.ar    1  UNL1        0.0091
      3 C         144.4185  139.9398  162.5950 C.ar    1  UNL1        0.0194
      4 C         144.3013  139.1880  163.8877 C.ar    1  UNL1        0.0844
      5 N         143.5933  139.8093  165.0551 N.ar    1  UNL1       -0.2576
      6 C         143.4761  139.0575  166.3478 C.ar    1  UNL1        0.2672
      7 O         144.0667  137.6844  166.4731 O.2     1  UNL1       -0.2665
      8 C         142.7681  139.6788  167.5152 C.ar    1  UNL1        0.0742
      9 C         142.6508  138.9270  168.8079 C.ar    1  UNL1        0.0063
     10 C         141.9429  139.5482  169.9752 C.ar    1  UNL1        0.0003
     11 C         141.3521  140.9214  169.8500 C.ar    1  UNL1        0.0015
     12 C         140.6442  141.5426  171.0173 C.ar    1  UNL1        0.0000
     13 C         140.0535  142.9157  170.8920 C.ar    1  UNL1        0.0000
     14 C         140.1708  143.6675  169.5993 C.ar    1  UNL1        0.0000
     15 C         140.8787  143.0462  168.4319 C.ar    1  UNL1        0.0015
     16 C         141.4694  141.6732  168.5573 C.ar    1  UNL1        0.0179
     17 C         142.1774  141.0519  167.3899 C.ar    1  UNL1        0.0875
     18 N         142.2947  141.8037  166.0972 N.ar    1  UNL1       -0.2276
     19 C         143.0026  141.1824  164.9298 C.ar    1  UNL1        0.1543
     20 N         141.1397  143.5743  164.0097 N.am    1  UNL1       -0.2994
     21 C         142.5292  143.3073  163.5118 C.2     1  UNL1        0.2488
     22 O         143.3281  144.4134  162.8886 O.2     1  UNL1       -0.2700
     23 H         140.6153  142.8483  164.4187 H       1  UNL1        0.1498
     24 C         140.5490  144.9474  163.8843 C.3     1  UNL1        0.1070
     25 C         139.4902  145.2175  162.8567 C.3     1  UNL1        0.0937
     26 C         138.6394  141.3599  158.3406 C.3     1  UNL1        0.0897
     27 N         138.8521  142.3243  159.4696 N.3     1  UNL1       -0.2691
     28 C         138.0940  142.1557  160.7529 C.3     1  UNL1        0.0897
     29 C         138.3067  143.1201  161.8819 C.3     1  UNL1        0.0897
     30 N         139.2775  144.2531  161.7277 N.3     1  UNL1       -0.2689
     31 C         140.0357  144.4217  160.4444 C.3     1  UNL1        0.0897
     32 C         139.8230  143.4573  159.3154 C.3     1  UNL1        0.0897
@<TRIPOS>BOND
     1    26    27    1
     2    27    28    1
     3    28    29    1
     4    29    30    1
     5    30    25    1
     6    25    24    1
     7    24    20    1
     8    20    21   am
     9    21    22    2
    10    21     1    1
    11     1     2   ar
    12     2     3   ar
    13     3     4   ar
    14     4     5   ar
    15     5     6   ar
    16     6     7    2
    17     6     8   ar
    18     8     9   ar
    19     9    10   ar
    20    10    11   ar
    21    11    12   ar
    22    12    13   ar
    23    13    14   ar
    24    14    15   ar
    25    15    16   ar
    26    16    17   ar
    27    17    18   ar
    28    18    19   ar
    29    30    31    1
    30    31    32    1
    31    32    27    1
    32    19     1   ar
    33    19     5   ar
    34    17     8   ar
    35    16    11   ar
    36    20    23    1
